Compound 1
Actelion Java MolfileCreator 2.0

  0  0  0  0  0  0              0 V3000
M  V30 BEGIN CTAB
M  V30 COUNTS 5 4 0 0 0
M  V30 BEGIN ATOM
M  V30 1 O 0.0 0.0 0.0 0
M  V30 2 C 1.3004 0.7475 0.0 0
M  V30 3 C 2.6009 0.0 0.0 0
M  V30 4 C 3.9014 0.7475 0.0 0
M  V30 5 O 5.2018 0.0 0.0 0
M  V30 END ATOM
M  V30 BEGIN BOND
M  V30 1 1 1 2
M  V30 2 1 2 3
M  V30 3 1 3 4
M  V30 4 1 4 5
M  V30 END BOND
M  V30 END CTAB
M  END
>  <Molecule Name>
Trimethylene glycol

>  <Activity Label>
0

>  <SMILES>
OCCCO

>  <Molecular Formula>
C3H8O2

>  <InChIKey>
YPFDHNVEDLHUCE-UHFFFAOYSA-N

>  <Repellency>
Inactive

>  <Reference DOI>
10.3390/toxics11100837

>  <Target Organism>
Not applied

$$$$
Compound 2
Actelion Java MolfileCreator 2.0

  0  0  0  0  0  0              0 V3000
M  V30 BEGIN CTAB
M  V30 COUNTS 5 4 0 0 0
M  V30 BEGIN ATOM
M  V30 1 O 0.0 0.0 0.0 0
M  V30 2 C 0.0 1.5006 0.0 0 CFG=2
M  V30 3 C -1.2997 2.245 0.0 0
M  V30 4 C 1.2997 2.245 0.0 0
M  V30 5 O -2.5994 1.4888 0.0 0
M  V30 END ATOM
M  V30 BEGIN BOND
M  V30 1 1 2 1 CFG=3
M  V30 2 1 2 3
M  V30 3 1 2 4
M  V30 4 1 3 5
M  V30 END BOND
M  V30 BEGIN COLLECTION
M  V30 MDLV30/STERAC1 ATOMS=(1 2)
M  V30 END COLLECTION
M  V30 END CTAB
M  END
>  <Molecule Name>
Propylene glycol

>  <Activity Label>
0

>  <SMILES>
CC(CO)O

>  <Molecular Formula>
C3H8O2

>  <InChIKey>
DNIAPMSPPWPWGF-UHFFFAOYSA-N

>  <Repellency>
Inactive

>  <Reference DOI>
10.3390/toxics11100837

>  <Target Organism>
Not applied

$$$$
Compound 3
Actelion Java MolfileCreator 2.0

  0  0  0  0  0  0              0 V3000
M  V30 BEGIN CTAB
M  V30 COUNTS 5 4 0 0 0
M  V30 BEGIN ATOM
M  V30 1 O 0.0 0.0 0.0 0
M  V30 2 C 1.3004 0.7475 0.0 0
M  V30 3 C 2.6009 0.0 0.0 0
M  V30 4 C 3.9014 0.7475 0.0 0
M  V30 5 C 5.2018 0.0 0.0 0
M  V30 END ATOM
M  V30 BEGIN BOND
M  V30 1 1 1 2
M  V30 2 1 2 3
M  V30 3 1 3 4
M  V30 4 1 4 5
M  V30 END BOND
M  V30 END CTAB
M  END
>  <Molecule Name>
n-Butyl alcohol

>  <Activity Label>
0

>  <SMILES>
CCCCO

>  <Molecular Formula>
C4H10O

>  <InChIKey>
LRHPLDYGYMQRHN-UHFFFAOYSA-N

>  <Repellency>
Inactive

>  <Reference DOI>
10.3390/toxics11100837

>  <Target Organism>
Not applied

$$$$
Compound 4
Actelion Java MolfileCreator 2.0

  0  0  0  0  0  0              0 V3000
M  V30 BEGIN CTAB
M  V30 COUNTS 5 4 0 0 0
M  V30 BEGIN ATOM
M  V30 1 O 0.0 0.0 0.0 0
M  V30 2 C 1.2997 0.7444 0.0 0
M  V30 3 C 2.5994 -0.0118 0.0 0
M  V30 4 C 3.8992 0.7325 0.0 0
M  V30 5 C 2.5994 -1.5124 0.0 0
M  V30 END ATOM
M  V30 BEGIN BOND
M  V30 1 1 1 2
M  V30 2 1 2 3
M  V30 3 1 3 4
M  V30 4 1 3 5
M  V30 END BOND
M  V30 END CTAB
M  END
>  <Molecule Name>
iso-Butyl alcohol

>  <Activity Label>
0

>  <SMILES>
CC(C)CO

>  <Molecular Formula>
C4H10O

>  <InChIKey>
ZXEKIIBDNHEJCQ-UHFFFAOYSA-N

>  <Repellency>
Inactive

>  <Reference DOI>
10.3390/toxics11100837

>  <Target Organism>
Not applied

$$$$
Compound 5
Actelion Java MolfileCreator 2.0

  0  0  0  0  0  0              0 V3000
M  V30 BEGIN CTAB
M  V30 COUNTS 5 4 0 0 0
M  V30 BEGIN ATOM
M  V30 1 O 0.0 0.0 0.0 0
M  V30 2 C 1.2991 0.744 0.0 0
M  V30 3 C 2.5982 -0.0118 0.0 0
M  V30 4 C 1.2991 2.2439 0.0 0
M  V30 5 C 1.2991 -0.7558 0.0 0
M  V30 END ATOM
M  V30 BEGIN BOND
M  V30 1 1 1 2
M  V30 2 1 2 3
M  V30 3 1 2 4
M  V30 4 1 2 5
M  V30 END BOND
M  V30 END CTAB
M  END
>  <Molecule Name>
tert-butyl alcohol

>  <Activity Label>
0

>  <SMILES>
CC(C)(C)O

>  <Molecular Formula>
C4H10O

>  <InChIKey>
DKGAVHZHDRPRBM-UHFFFAOYSA-N

>  <Repellency>
Inactive

>  <Reference DOI>
10.3390/toxics11100837

>  <Target Organism>
Not applied

$$$$
Compound 6
Actelion Java MolfileCreator 2.0

  0  0  0  0  0  0              0 V3000
M  V30 BEGIN CTAB
M  V30 COUNTS 5 4 0 0 0
M  V30 BEGIN ATOM
M  V30 1 O 0.0 0.0 0.0 0
M  V30 2 N -1.2984 -0.7554 0.0 0 CHG=1
M  V30 3 O -1.2984 -2.2546 0.0 0 CHG=-1
M  V30 4 C -2.5969 -0.0118 0.0 0
M  V30 5 C -3.8954 -0.7672 0.0 0
M  V30 END ATOM
M  V30 BEGIN BOND
M  V30 1 2 1 2
M  V30 2 1 2 3
M  V30 3 1 2 4
M  V30 4 1 4 5
M  V30 END BOND
M  V30 END CTAB
M  END
>  <Molecule Name>
Nitroethane

>  <Activity Label>
0

>  <SMILES>
CC[N+]([O-])=O

>  <Molecular Formula>
C2H5NO2

>  <InChIKey>
MCSAJNNLRCFZED-UHFFFAOYSA-N

>  <Repellency>
Inactive

>  <Reference DOI>
10.3390/toxics11100837

>  <Target Organism>
Not applied

$$$$
Compound 7
Actelion Java MolfileCreator 2.0

  0  0  0  0  0  0              0 V3000
M  V30 BEGIN CTAB
M  V30 COUNTS 5 4 0 0 0
M  V30 BEGIN ATOM
M  V30 1 O 0.0 0.0 0.0 0
M  V30 2 C -1.2984 -0.7554 0.0 0
M  V30 3 N -2.5969 -0.0118 0.0 0
M  V30 4 C -2.5969 1.4873 0.0 0
M  V30 5 C -3.8954 -0.7672 0.0 0
M  V30 END ATOM
M  V30 BEGIN BOND
M  V30 1 2 1 2
M  V30 2 1 2 3
M  V30 3 1 3 4
M  V30 4 1 3 5
M  V30 END BOND
M  V30 END CTAB
M  END
>  <Molecule Name>
N,N-Dimethyl formamide

>  <Activity Label>
0

>  <SMILES>
CN(C)C=O

>  <Molecular Formula>
C3H7NO

>  <InChIKey>
ZMXDDKWLCZADIW-UHFFFAOYSA-N

>  <Repellency>
Inactive

>  <Reference DOI>
10.3390/toxics11100837

>  <Target Organism>
Not applied

$$$$
Compound 8
Actelion Java MolfileCreator 2.0

  0  0  0  0  0  0              0 V3000
M  V30 BEGIN CTAB
M  V30 COUNTS 5 5 0 0 0
M  V30 BEGIN ATOM
M  V30 1 N 0.0 0.0 0.0 0
M  V30 2 C 0.7552 -1.298 0.0 0
M  V30 3 C 1.5104 -2.5961 0.0 0
M  V30 4 C 1.5104 -4.0948 0.0 0
M  V30 5 C 2.8085 -3.3396 0.0 0
M  V30 END ATOM
M  V30 BEGIN BOND
M  V30 1 3 1 2
M  V30 2 1 2 3
M  V30 3 1 3 4
M  V30 4 1 3 5
M  V30 5 1 4 5
M  V30 END BOND
M  V30 END CTAB
M  END
>  <Molecule Name>
Cyclopropyl nitrile

>  <Activity Label>
0

>  <SMILES>
N#CC1CC1

>  <Molecular Formula>
C4H5N

>  <InChIKey>
AUQDITHEDVOTCU-UHFFFAOYSA-N

>  <Repellency>
Inactive

>  <Reference DOI>
10.3390/toxics11100837

>  <Target Organism>
Not applied

$$$$
Compound 9
Actelion Java MolfileCreator 2.0

  0  0  0  0  0  0              0 V3000
M  V30 BEGIN CTAB
M  V30 COUNTS 6 6 0 0 0
M  V30 BEGIN ATOM
M  V30 1 C 0.0 0.0 0.0 0
M  V30 2 C 0.0 -1.4998 0.0 0
M  V30 3 C 1.2991 0.744 0.0 0
M  V30 4 C 1.2991 -2.2557 0.0 0
M  V30 5 C 2.5982 0.0 0.0 0
M  V30 6 C 2.5982 -1.4998 0.0 0
M  V30 END ATOM
M  V30 BEGIN BOND
M  V30 1 2 1 2
M  V30 2 1 1 3
M  V30 3 1 2 4
M  V30 4 2 3 5
M  V30 5 2 4 6
M  V30 6 1 5 6
M  V30 END BOND
M  V30 END CTAB
M  END
>  <Molecule Name>
Benzene

>  <Activity Label>
0

>  <SMILES>
c1ccccc1

>  <Molecular Formula>
C6H6

>  <InChIKey>
UHOVQNZJYSORNB-UHFFFAOYSA-N

>  <Repellency>
Inactive

>  <Reference DOI>
10.3390/toxics11100837

>  <Target Organism>
Not applied

$$$$
Compound 10
Actelion Java MolfileCreator 2.0

  0  0  0  0  0  0              0 V3000
M  V30 BEGIN CTAB
M  V30 COUNTS 6 6 0 0 0
M  V30 BEGIN ATOM
M  V30 1 C 0.0 0.0 0.0 0
M  V30 2 C 0.0 1.4998 0.0 0
M  V30 3 C 1.2991 -0.7558 0.0 0
M  V30 4 C 1.2991 2.2439 0.0 0
M  V30 5 C 2.5982 0.0 0.0 0
M  V30 6 C 2.5982 1.4998 0.0 0
M  V30 END ATOM
M  V30 BEGIN BOND
M  V30 1 2 1 2
M  V30 2 1 1 3
M  V30 3 1 2 4
M  V30 4 1 3 5
M  V30 5 1 4 6
M  V30 6 1 5 6
M  V30 END BOND
M  V30 END CTAB
M  END
>  <Molecule Name>
Cyclohexene

>  <Activity Label>
0

>  <SMILES>
C1CC=CCC1

>  <Molecular Formula>
C6H10

>  <InChIKey>
HGCIXCUEYOPUTN-UHFFFAOYSA-N

>  <Repellency>
Inactive

>  <Reference DOI>
10.3390/toxics11100837

>  <Target Organism>
Not applied

$$$$
Compound 11
Actelion Java MolfileCreator 2.0

  0  0  0  0  0  0              0 V3000
M  V30 BEGIN CTAB
M  V30 COUNTS 6 6 0 0 0
M  V30 BEGIN ATOM
M  V30 1 C 0.0 0.0 0.0 0
M  V30 2 C 0.0 -1.4998 0.0 0
M  V30 3 C 1.2991 0.744 0.0 0
M  V30 4 C 1.2991 -2.2557 0.0 0
M  V30 5 C 2.5982 0.0 0.0 0
M  V30 6 C 2.5982 -1.4998 0.0 0
M  V30 END ATOM
M  V30 BEGIN BOND
M  V30 1 1 1 2
M  V30 2 1 1 3
M  V30 3 1 2 4
M  V30 4 1 3 5
M  V30 5 1 4 6
M  V30 6 1 5 6
M  V30 END BOND
M  V30 END CTAB
M  END
>  <Molecule Name>
cyclohexane

>  <Activity Label>
0

>  <SMILES>
C1CCCCC1

>  <Molecular Formula>
C6H12

>  <InChIKey>
XDTMQSROBMDMFD-UHFFFAOYSA-N

>  <Repellency>
Inactive

>  <Reference DOI>
10.3390/toxics11100837

>  <Target Organism>
Not applied

$$$$
Compound 12
Actelion Java MolfileCreator 2.0

  0  0  0  0  0  0              0 V3000
M  V30 BEGIN CTAB
M  V30 COUNTS 6 6 0 0 0
M  V30 BEGIN ATOM
M  V30 1 O 0.0 0.0 0.0 0
M  V30 2 C 1.3019 0.7506 0.0 0
M  V30 3 O 1.4544 2.2402 0.0 0
M  V30 4 C 2.6742 0.1407 0.0 0
M  V30 5 C 2.9205 2.5569 0.0 0
M  V30 6 C 3.6712 1.255 0.0 0
M  V30 END ATOM
M  V30 BEGIN BOND
M  V30 1 2 1 2
M  V30 2 1 2 3
M  V30 3 1 2 4
M  V30 4 1 3 5
M  V30 5 1 4 6
M  V30 6 1 5 6
M  V30 END BOND
M  V30 END CTAB
M  END
>  <Molecule Name>
gamma-Butyrolactone

>  <Activity Label>
0

>  <SMILES>
O=C1OCCC1

>  <Molecular Formula>
C4H6O2

>  <InChIKey>
YEJRWHAVMIAJKC-UHFFFAOYSA-N

>  <Repellency>
Inactive

>  <Reference DOI>
10.3390/toxics11100837

>  <Target Organism>
Not applied

$$$$
Compound 13
Actelion Java MolfileCreator 2.0

  0  0  0  0  0  0              0 V3000
M  V30 BEGIN CTAB
M  V30 COUNTS 6 6 0 0 0
M  V30 BEGIN ATOM
M  V30 1 O 0.0 0.0 0.0 0
M  V30 2 C 0.0 -1.4998 0.0 0
M  V30 3 C 1.2991 0.744 0.0 0
M  V30 4 C 1.2991 -2.2557 0.0 0
M  V30 5 C 2.5982 0.0 0.0 0
M  V30 6 O 2.5982 -1.4998 0.0 0
M  V30 END ATOM
M  V30 BEGIN BOND
M  V30 1 1 1 2
M  V30 2 1 1 3
M  V30 3 1 2 4
M  V30 4 1 3 5
M  V30 5 1 4 6
M  V30 6 1 5 6
M  V30 END BOND
M  V30 END CTAB
M  END
>  <Molecule Name>
1,4-Dioxane

>  <Activity Label>
0

>  <SMILES>
C1OCCOC1

>  <Molecular Formula>
C4H8O2

>  <InChIKey>
RYHBNJHYFVUHQT-UHFFFAOYSA-N

>  <Repellency>
Inactive

>  <Reference DOI>
10.3390/toxics11100837

>  <Target Organism>
Not applied

$$$$
Compound 14
Actelion Java MolfileCreator 2.0

  0  0  0  0  0  0              0 V3000
M  V30 BEGIN CTAB
M  V30 COUNTS 6 6 0 0 0
M  V30 BEGIN ATOM
M  V30 1 Cl 0.0 0.0 0.0 0
M  V30 2 C -1.2986 0.7437 0.0 0
M  V30 3 C -2.5972 -0.0118 0.0 0
M  V30 4 O -4.0966 -0.0118 0.0 0
M  V30 5 C -3.341 -1.3104 0.0 0
M  V30 6 C -1.5347 -1.0743 0.0 0
M  V30 END ATOM
M  V30 BEGIN BOND
M  V30 1 1 1 2
M  V30 2 1 2 3
M  V30 3 1 3 4
M  V30 4 1 3 5
M  V30 5 1 3 6
M  V30 6 1 4 5
M  V30 END BOND
M  V30 END CTAB
M  END
>  <Molecule Name>
beta-Methylepichlorohydrin

>  <Activity Label>
0

>  <SMILES>
CC1(CCl)OC1

>  <Molecular Formula>
C4H7OCl

>  <InChIKey>
VVHFXJOCUKBZFS-UHFFFAOYSA-N

>  <Repellency>
Inactive

>  <Reference DOI>
10.3390/toxics11100837

>  <Target Organism>
Not applied

$$$$
Compound 15
Actelion Java MolfileCreator 2.0

  0  0  0  0  0  0              0 V3000
M  V30 BEGIN CTAB
M  V30 COUNTS 6 5 0 0 0
M  V30 BEGIN ATOM
M  V30 1 O 0.0 0.0 0.0 0
M  V30 2 C 0.0 1.4998 0.0 0 CFG=2
M  V30 3 C -1.2991 2.2439 0.0 0
M  V30 4 C 1.2991 2.2439 0.0 0
M  V30 5 O -2.5982 1.488 0.0 0
M  V30 6 C 2.5982 1.488 0.0 0
M  V30 END ATOM
M  V30 BEGIN BOND
M  V30 1 1 2 1 CFG=3
M  V30 2 1 2 3
M  V30 3 1 2 4
M  V30 4 1 3 5
M  V30 5 1 4 6
M  V30 END BOND
M  V30 BEGIN COLLECTION
M  V30 MDLV30/STERAC1 ATOMS=(1 2)
M  V30 END COLLECTION
M  V30 END CTAB
M  END
>  <Molecule Name>
1,2-Butanediol

>  <Activity Label>
0

>  <SMILES>
CCC(CO)O

>  <Molecular Formula>
C4H10O2

>  <InChIKey>
BMRWNKZVCUKKSR-UHFFFAOYSA-N

>  <Repellency>
Inactive

>  <Reference DOI>
10.3390/toxics11100837

>  <Target Organism>
Not applied

$$$$
Compound 16
Actelion Java MolfileCreator 2.0

  0  0  0  0  0  0              0 V3000
M  V30 BEGIN CTAB
M  V30 COUNTS 6 5 0 0 0
M  V30 BEGIN ATOM
M  V30 1 O 0.0 0.0 0.0 0
M  V30 2 C 0.0 1.5004 0.0 0
M  V30 3 C -1.2996 2.2448 0.0 0 CFG=1
M  V30 4 C 1.2996 2.2448 0.0 0
M  V30 5 O -1.2996 3.7453 0.0 0
M  V30 6 C -2.5992 1.4886 0.0 0
M  V30 END ATOM
M  V30 BEGIN BOND
M  V30 1 2 1 2
M  V30 2 1 2 3
M  V30 3 1 2 4
M  V30 4 1 3 5 CFG=3
M  V30 5 1 3 6
M  V30 END BOND
M  V30 BEGIN COLLECTION
M  V30 MDLV30/STERAC1 ATOMS=(1 3)
M  V30 END COLLECTION
M  V30 END CTAB
M  END
>  <Molecule Name>
Acetylmethylcarbinol

>  <Activity Label>
0

>  <SMILES>
CC(C(C)=O)O

>  <Molecular Formula>
C4H8O2

>  <InChIKey>
ROWKJAVDOGWPAT-UHFFFAOYSA-N

>  <Repellency>
Inactive

>  <Reference DOI>
10.3390/toxics11100837

>  <Target Organism>
Not applied

$$$$
Compound 17
Actelion Java MolfileCreator 2.0

  0  0  0  0  0  0              0 V3000
M  V30 BEGIN CTAB
M  V30 COUNTS 6 5 0 0 0
M  V30 BEGIN ATOM
M  V30 1 O 0.0 0.0 0.0 0
M  V30 2 C 1.3004 0.7475 0.0 0
M  V30 3 C 2.6009 0.0 0.0 0
M  V30 4 C 3.9014 0.7475 0.0 0
M  V30 5 C 5.2018 0.0 0.0 0
M  V30 6 O 6.5023 0.7475 0.0 0
M  V30 END ATOM
M  V30 BEGIN BOND
M  V30 1 1 1 2
M  V30 2 1 2 3
M  V30 3 2 3 4 CFG=2
M  V30 4 1 4 5
M  V30 5 1 5 6
M  V30 END BOND
M  V30 END CTAB
M  END
>  <Molecule Name>
2-Butene-1,4-diol

>  <Activity Label>
0

>  <SMILES>
OCC=CCO

>  <Molecular Formula>
C4H8O2

>  <InChIKey>
ORTVZLZNOYNASJ-UHFFFAOYSA-N

>  <Repellency>
Inactive

>  <Reference DOI>
10.3390/toxics11100837

>  <Target Organism>
Not applied

$$$$
Compound 18
Actelion Java MolfileCreator 2.0

  0  0  0  0  0  0              0 V3000
M  V30 BEGIN CTAB
M  V30 COUNTS 6 5 0 0 0
M  V30 BEGIN ATOM
M  V30 1 O 0.0 0.0 0.0 0
M  V30 2 C 0.0 1.4998 0.0 0 CFG=2
M  V30 3 C 1.2991 2.2439 0.0 0
M  V30 4 C -1.2991 2.2439 0.0 0
M  V30 5 C 2.5982 1.488 0.0 0
M  V30 6 O -2.5982 1.488 0.0 0
M  V30 END ATOM
M  V30 BEGIN BOND
M  V30 1 1 2 1 CFG=1
M  V30 2 1 2 3
M  V30 3 1 2 4
M  V30 4 2 3 5
M  V30 5 1 4 6
M  V30 END BOND
M  V30 BEGIN COLLECTION
M  V30 MDLV30/STERAC1 ATOMS=(1 2)
M  V30 END COLLECTION
M  V30 END CTAB
M  END
>  <Molecule Name>
1-Butene-3,4-diol

>  <Activity Label>
0

>  <SMILES>
C=CC(CO)O

>  <Molecular Formula>
C4H8O2

>  <InChIKey>
ITMIAZBRRZANGB-UHFFFAOYSA-N

>  <Repellency>
Inactive

>  <Reference DOI>
10.3390/toxics11100837

>  <Target Organism>
Not applied

$$$$
Compound 19
Actelion Java MolfileCreator 2.0

  0  0  0  0  0  0              0 V3000
M  V30 BEGIN CTAB
M  V30 COUNTS 6 5 0 0 0
M  V30 BEGIN ATOM
M  V30 1 O 0.0 0.0 0.0 0
M  V30 2 C 0.0 -1.4986 0.0 0 CFG=2
M  V30 3 C -1.298 -2.2539 0.0 0
M  V30 4 C 1.298 -2.2539 0.0 0
M  V30 5 C -2.5961 -1.5104 0.0 0
M  V30 6 O -3.8942 -2.2657 0.0 0
M  V30 END ATOM
M  V30 BEGIN BOND
M  V30 1 1 2 1 CFG=1
M  V30 2 1 2 3
M  V30 3 1 2 4
M  V30 4 1 3 5
M  V30 5 1 5 6
M  V30 END BOND
M  V30 BEGIN COLLECTION
M  V30 MDLV30/STERAC1 ATOMS=(1 2)
M  V30 END COLLECTION
M  V30 END CTAB
M  END
>  <Molecule Name>
1,3-Butyleneglycol

>  <Activity Label>
0

>  <SMILES>
CC(CCO)O

>  <Molecular Formula>
C4H10O2

>  <InChIKey>
PUPZLCDOIYMWBV-UHFFFAOYSA-N

>  <Repellency>
Inactive

>  <Reference DOI>
10.3390/toxics11100837

>  <Target Organism>
Not applied

$$$$
Compound 20
Actelion Java MolfileCreator 2.0

  0  0  0  0  0  0              0 V3000
M  V30 BEGIN CTAB
M  V30 COUNTS 6 5 0 0 0
M  V30 BEGIN ATOM
M  V30 1 O 0.0 0.0 0.0 0
M  V30 2 C 1.3004 0.7475 0.0 0
M  V30 3 C 2.6009 0.0 0.0 0
M  V30 4 C 3.9014 0.7475 0.0 0
M  V30 5 C 5.2018 0.0 0.0 0
M  V30 6 C 6.5023 0.7475 0.0 0
M  V30 END ATOM
M  V30 BEGIN BOND
M  V30 1 1 1 2
M  V30 2 1 2 3
M  V30 3 1 3 4
M  V30 4 1 4 5
M  V30 5 1 5 6
M  V30 END BOND
M  V30 END CTAB
M  END
>  <Molecule Name>
n-Amyl alcohol

>  <Activity Label>
0

>  <SMILES>
CCCCCO

>  <Molecular Formula>
C5H12O

>  <InChIKey>
AMQJEAYHLZJPGS-UHFFFAOYSA-N

>  <Repellency>
Inactive

>  <Reference DOI>
10.3390/toxics11100837

>  <Target Organism>
Not applied

$$$$
Compound 21
Actelion Java MolfileCreator 2.0

  0  0  0  0  0  0              0 V3000
M  V30 BEGIN CTAB
M  V30 COUNTS 6 5 0 0 0
M  V30 BEGIN ATOM
M  V30 1 O 0.0 0.0 0.0 0
M  V30 2 C 0.0 1.4998 0.0 0
M  V30 3 C 1.2991 2.2439 0.0 0
M  V30 4 C -1.2991 2.2439 0.0 0
M  V30 5 O 2.5982 1.488 0.0 0
M  V30 6 O -2.5982 1.488 0.0 0
M  V30 END ATOM
M  V30 BEGIN BOND
M  V30 1 1 1 2
M  V30 2 1 2 3
M  V30 3 1 2 4
M  V30 4 1 3 5
M  V30 5 1 4 6
M  V30 END BOND
M  V30 END CTAB
M  END
>  <Molecule Name>
Glycerine

>  <Activity Label>
0

>  <SMILES>
OCC(CO)O

>  <Molecular Formula>
C3H8O3

>  <InChIKey>
PEDCQBHIVMGVHV-UHFFFAOYSA-N

>  <Repellency>
Inactive

>  <Reference DOI>
10.3390/toxics11100837

>  <Target Organism>
Not applied

$$$$
Compound 22
Actelion Java MolfileCreator 2.0

  0  0  0  0  0  0              0 V3000
M  V30 BEGIN CTAB
M  V30 COUNTS 6 5 0 0 0
M  V30 BEGIN ATOM
M  V30 1 S 0.0 0.0 0.0 0
M  V30 2 O 0.0 -1.4998 0.0 0
M  V30 3 O 1.2991 0.744 0.0 0
M  V30 4 O -1.2991 0.744 0.0 0
M  V30 5 C 2.5982 -0.0118 0.0 0
M  V30 6 C -2.5982 -0.0118 0.0 0
M  V30 END ATOM
M  V30 BEGIN BOND
M  V30 1 2 1 2
M  V30 2 1 1 3
M  V30 3 1 1 4
M  V30 4 1 3 5
M  V30 5 1 4 6
M  V30 END BOND
M  V30 END CTAB
M  END
>  <Molecule Name>
Dimethyl sulfite

>  <Activity Label>
0

>  <SMILES>
COS(OC)=O

>  <Molecular Formula>
C2H6O3S

>  <InChIKey>
BDUPRNVPXOHWIL-UHFFFAOYSA-N

>  <Repellency>
Inactive

>  <Reference DOI>
10.3390/toxics11100837

>  <Target Organism>
Not applied

$$$$
Compound 23
Actelion Java MolfileCreator 2.0

  0  0  0  0  0  0              0 V3000
M  V30 BEGIN CTAB
M  V30 COUNTS 6 5 0 0 0
M  V30 BEGIN ATOM
M  V30 1 O 0.0 0.0 0.0 0
M  V30 2 N -1.2986 -0.7555 0.0 0 CHG=1
M  V30 3 O -1.2986 -2.2548 0.0 0 CHG=-1
M  V30 4 C -2.5972 -0.0118 0.0 0
M  V30 5 C -2.5972 1.4875 0.0 0
M  V30 6 C -3.8958 -0.7673 0.0 0
M  V30 END ATOM
M  V30 BEGIN BOND
M  V30 1 2 1 2
M  V30 2 1 2 3
M  V30 3 1 2 4
M  V30 4 1 4 5
M  V30 5 1 4 6
M  V30 END BOND
M  V30 END CTAB
M  END
>  <Molecule Name>
2-Nitropropane

>  <Activity Label>
0

>  <SMILES>
CC(C)[N+]([O-])=O

>  <Molecular Formula>
C3H7NO2

>  <InChIKey>
FGLBSLMDCBOPQK-UHFFFAOYSA-N

>  <Repellency>
Inactive

>  <Reference DOI>
10.3390/toxics11100837

>  <Target Organism>
Not applied

$$$$
Compound 24
Actelion Java MolfileCreator 2.0

  0  0  0  0  0  0              0 V3000
M  V30 BEGIN CTAB
M  V30 COUNTS 6 5 0 0 0
M  V30 BEGIN ATOM
M  V30 1 O 0.0 0.0 0.0 0
M  V30 2 C 0.0 1.4998 0.0 0
M  V30 3 N -1.2991 2.2439 0.0 0
M  V30 4 C 1.2991 2.2439 0.0 0
M  V30 5 C -2.5982 1.488 0.0 0
M  V30 6 C 2.5982 1.488 0.0 0
M  V30 END ATOM
M  V30 BEGIN BOND
M  V30 1 2 1 2
M  V30 2 1 2 3
M  V30 3 1 2 4
M  V30 4 1 3 5
M  V30 5 1 4 6
M  V30 END BOND
M  V30 END CTAB
M  END
>  <Molecule Name>
N-Methyl propionamide

>  <Activity Label>
0

>  <SMILES>
CCC(NC)=O

>  <Molecular Formula>
C4H9NO

>  <InChIKey>
QJQAMHYHNCADNR-UHFFFAOYSA-N

>  <Repellency>
Inactive

>  <Reference DOI>
10.3390/toxics11100837

>  <Target Organism>
Not applied

$$$$
Compound 25
Actelion Java MolfileCreator 2.0

  0  0  0  0  0  0              0 V3000
M  V30 BEGIN CTAB
M  V30 COUNTS 6 5 0 0 0
M  V30 BEGIN ATOM
M  V30 1 O 0.0 0.0 0.0 0
M  V30 2 C 1.2991 0.744 0.0 0
M  V30 3 N 2.5982 -0.0118 0.0 0
M  V30 4 C 1.2991 2.2439 0.0 0
M  V30 5 C 3.8973 0.7322 0.0 0
M  V30 6 C 5.1964 -0.0236 0.0 0
M  V30 END ATOM
M  V30 BEGIN BOND
M  V30 1 2 1 2
M  V30 2 1 2 3
M  V30 3 1 2 4
M  V30 4 1 3 5
M  V30 5 1 5 6
M  V30 END BOND
M  V30 END CTAB
M  END
>  <Molecule Name>
N-Ethylacetamide

>  <Activity Label>
0

>  <SMILES>
CCNC(C)=O

>  <Molecular Formula>
C4H9NO

>  <InChIKey>
PMDCZENCAXMSOU-UHFFFAOYSA-N

>  <Repellency>
Inactive

>  <Reference DOI>
10.3390/toxics11100837

>  <Target Organism>
Not applied

$$$$
Compound 26
Actelion Java MolfileCreator 2.0

  0  0  0  0  0  0              0 V3000
M  V30 BEGIN CTAB
M  V30 COUNTS 6 5 0 0 0
M  V30 BEGIN ATOM
M  V30 1 O 0.0 0.0 0.0 0
M  V30 2 N 1.3004 0.7475 0.0 0
M  V30 3 C 2.6009 0.0 0.0 0
M  V30 4 C 3.9014 0.7475 0.0 0
M  V30 5 C 5.2018 0.0 0.0 0
M  V30 6 C 6.5023 0.7475 0.0 0
M  V30 END ATOM
M  V30 BEGIN BOND
M  V30 1 1 1 2
M  V30 2 2 2 3 CFG=2
M  V30 3 1 3 4
M  V30 4 1 4 5
M  V30 5 1 5 6
M  V30 END BOND
M  V30 END CTAB
M  END
>  <Molecule Name>
Butyraldehyde oxime

>  <Activity Label>
0

>  <SMILES>
CCCC=NO

>  <Molecular Formula>
C4H9NO

>  <InChIKey>
KGGVGTQEGGOZRN-UHFFFAOYSA-N

>  <Repellency>
Inactive

>  <Reference DOI>
10.3390/toxics11100837

>  <Target Organism>
Not applied

$$$$
Compound 27
Actelion Java MolfileCreator 2.0

  0  0  0  0  0  0              0 V3000
M  V30 BEGIN CTAB
M  V30 COUNTS 6 5 0 0 0
M  V30 BEGIN ATOM
M  V30 1 O 0.0 0.0 0.0 0
M  V30 2 C 0.0 1.5 0.0 0
M  V30 3 C 0.0 3.0 0.0 0
M  V30 4 C 1.5 1.5 0.0 0
M  V30 5 C -1.5 1.5 0.0 0
M  V30 6 N 0.0 4.5 0.0 0
M  V30 END ATOM
M  V30 BEGIN BOND
M  V30 1 1 1 2
M  V30 2 1 2 3
M  V30 3 1 2 4
M  V30 4 1 2 5
M  V30 5 3 3 6
M  V30 END BOND
M  V30 END CTAB
M  END
>  <Molecule Name>
Acetone cyanohydrin

>  <Activity Label>
0

>  <SMILES>
CC(C)(C#N)O

>  <Molecular Formula>
C4H7NO

>  <InChIKey>
MWFMGBPGAXYFAR-UHFFFAOYSA-N

>  <Repellency>
Inactive

>  <Reference DOI>
10.3390/toxics11100837

>  <Target Organism>
Not applied

$$$$
Compound 28
Actelion Java MolfileCreator 2.0

  0  0  0  0  0  0              0 V3000
M  V30 BEGIN CTAB
M  V30 COUNTS 7 6 0 0 0
M  V30 BEGIN ATOM
M  V30 1 O 0.0 0.0 0.0 0
M  V30 2 C 0.0 1.5003 0.0 0
M  V30 3 O -1.2995 2.2446 0.0 0
M  V30 4 C 1.2995 2.2446 0.0 0
M  V30 5 C -2.599 1.4885 0.0 0
M  V30 6 C 2.599 1.4885 0.0 0
M  V30 7 C 3.8985 2.2328 0.0 0
M  V30 END ATOM
M  V30 BEGIN BOND
M  V30 1 2 1 2
M  V30 2 1 2 3
M  V30 3 1 2 4
M  V30 4 1 3 5
M  V30 5 2 4 6
M  V30 6 1 6 7
M  V30 END BOND
M  V30 END CTAB
M  END
>  <Molecule Name>
Crotonic acid, methyl ester

>  <Activity Label>
0

>  <SMILES>
C/C=C/C(OC)=O

>  <Molecular Formula>
C5H8O2

>  <InChIKey>
MCVVUJPXSBQTRZ-ONEGZZNKSA-N

>  <Repellency>
Inactive

>  <Reference DOI>
10.3390/toxics11100837

>  <Target Organism>
Not applied

$$$$
Compound 29
Actelion Java MolfileCreator 2.0

  0  0  0  0  0  0              0 V3000
M  V30 BEGIN CTAB
M  V30 COUNTS 7 6 0 0 0
M  V30 BEGIN ATOM
M  V30 1 O 0.0 0.0 0.0 0
M  V30 2 C 0.0 1.5003 0.0 0
M  V30 3 O -1.2995 2.2446 0.0 0
M  V30 4 C 1.2995 2.2446 0.0 0
M  V30 5 C -2.599 1.4885 0.0 0
M  V30 6 C 2.599 1.4885 0.0 0
M  V30 7 C 3.8985 2.2328 0.0 0
M  V30 END ATOM
M  V30 BEGIN BOND
M  V30 1 2 1 2
M  V30 2 1 2 3
M  V30 3 1 2 4
M  V30 4 1 3 5
M  V30 5 1 4 6
M  V30 6 1 6 7
M  V30 END BOND
M  V30 END CTAB
M  END
>  <Molecule Name>
n-Butyric acid, methyl ester

>  <Activity Label>
0

>  <SMILES>
CCCC(OC)=O

>  <Molecular Formula>
C5H10O2

>  <InChIKey>
UUIQMZJEGPQKFD-UHFFFAOYSA-N

>  <Repellency>
Inactive

>  <Reference DOI>
10.3390/toxics11100837

>  <Target Organism>
Not applied

$$$$
Compound 30
Actelion Java MolfileCreator 2.0

  0  0  0  0  0  0              0 V3000
M  V30 BEGIN CTAB
M  V30 COUNTS 7 6 0 0 0
M  V30 BEGIN ATOM
M  V30 1 O 0.0 0.0 0.0 0
M  V30 2 C 1.2991 0.744 0.0 0
M  V30 3 C 2.5982 -0.0118 0.0 0 CFG=2
M  V30 4 C 1.2991 2.2439 0.0 0
M  V30 5 C 3.8973 0.7322 0.0 0
M  V30 6 C 2.5982 -1.5117 0.0 0
M  V30 7 O 5.1964 -0.0236 0.0 0
M  V30 END ATOM
M  V30 BEGIN BOND
M  V30 1 2 1 2
M  V30 2 1 2 3
M  V30 3 1 2 4
M  V30 4 1 3 5
M  V30 5 1 3 6 CFG=3
M  V30 6 1 5 7
M  V30 END BOND
M  V30 BEGIN COLLECTION
M  V30 MDLV30/STERAC1 ATOMS=(1 3)
M  V30 END COLLECTION
M  V30 END CTAB
M  END
>  <Molecule Name>
1-Hydroxy-2-methyl-3-butanone

>  <Activity Label>
0

>  <SMILES>
CC(CO)C(C)=O

>  <Molecular Formula>
C5H10O2

>  <InChIKey>
VVSRECWZBBJOTG-UHFFFAOYSA-N

>  <Repellency>
Inactive

>  <Reference DOI>
10.3390/toxics11100837

>  <Target Organism>
Not applied

$$$$
Compound 31
Actelion Java MolfileCreator 2.0

  0  0  0  0  0  0              0 V3000
M  V30 BEGIN CTAB
M  V30 COUNTS 7 6 0 0 0
M  V30 BEGIN ATOM
M  V30 1 O 0.0 0.0 0.0 0
M  V30 2 C 0.0 1.5003 0.0 0 CFG=2
M  V30 3 C -1.2995 2.2446 0.0 0
M  V30 4 C 1.2995 2.2446 0.0 0
M  V30 5 C -2.599 1.4885 0.0 0
M  V30 6 C -3.8985 2.2328 0.0 0
M  V30 7 O -5.198 1.4767 0.0 0
M  V30 END ATOM
M  V30 BEGIN BOND
M  V30 1 1 2 1 CFG=3
M  V30 2 1 2 3
M  V30 3 1 2 4
M  V30 4 1 3 5
M  V30 5 1 5 6
M  V30 6 1 6 7
M  V30 END BOND
M  V30 BEGIN COLLECTION
M  V30 MDLV30/STERAC1 ATOMS=(1 2)
M  V30 END COLLECTION
M  V30 END CTAB
M  END
>  <Molecule Name>
1,4-pentanediol

>  <Activity Label>
0

>  <SMILES>
CC(CCCO)O

>  <Molecular Formula>
C5H12O2

>  <InChIKey>
GLOBUAZSRIOKLN-UHFFFAOYSA-N

>  <Repellency>
Inactive

>  <Reference DOI>
10.3390/toxics11100837

>  <Target Organism>
Not applied

$$$$
Compound 32
Actelion Java MolfileCreator 2.0

  0  0  0  0  0  0              0 V3000
M  V30 BEGIN CTAB
M  V30 COUNTS 7 6 0 0 0
M  V30 BEGIN ATOM
M  V30 1 O 0.0 0.0 0.0 0
M  V30 2 C 1.2986 -0.7555 0.0 0
M  V30 3 C -1.2986 -0.7555 0.0 0
M  V30 4 C 2.5973 -0.0118 0.0 0
M  V30 5 C 1.2986 -2.2549 0.0 0
M  V30 6 C -2.5973 -0.0118 0.0 0
M  V30 7 O -3.896 -0.7673 0.0 0
M  V30 END ATOM
M  V30 BEGIN BOND
M  V30 1 1 1 2
M  V30 2 1 1 3
M  V30 3 1 2 4
M  V30 4 1 2 5
M  V30 5 1 3 6
M  V30 6 1 6 7
M  V30 END BOND
M  V30 END CTAB
M  END
>  <Molecule Name>
beta-iso-Propoxyethanol

>  <Activity Label>
0

>  <SMILES>
CC(C)OCCO

>  <Molecular Formula>
C5H12O2

>  <InChIKey>
HCGFUIQPSOCUHI-UHFFFAOYSA-N

>  <Repellency>
Inactive

>  <Reference DOI>
10.3390/toxics11100837

>  <Target Organism>
Not applied

$$$$
Compound 33
Actelion Java MolfileCreator 2.0

  0  0  0  0  0  0              0 V3000
M  V30 BEGIN CTAB
M  V30 COUNTS 7 6 0 0 0
M  V30 BEGIN ATOM
M  V30 1 O 0.0 0.0 0.0 0
M  V30 2 C 0.0 -1.4989 0.0 0
M  V30 3 C -1.2982 -2.2542 0.0 0
M  V30 4 C 1.2982 -2.2542 0.0 0
M  V30 5 C -2.5965 -1.5107 0.0 0
M  V30 6 O -3.8948 -2.266 0.0 0
M  V30 7 C -2.5965 -0.0118 0.0 0
M  V30 END ATOM
M  V30 BEGIN BOND
M  V30 1 2 1 2
M  V30 2 1 2 3
M  V30 3 1 2 4
M  V30 4 1 3 5
M  V30 5 2 5 6
M  V30 6 1 5 7
M  V30 END BOND
M  V30 END CTAB
M  END
>  <Molecule Name>
Acetylacetone

>  <Activity Label>
0

>  <SMILES>
CC(CC(C)=O)=O

>  <Molecular Formula>
C5H8O2

>  <InChIKey>
YRKCREAYFQTBPV-UHFFFAOYSA-N

>  <Repellency>
Inactive

>  <Reference DOI>
10.3390/toxics11100837

>  <Target Organism>
Not applied

$$$$
Compound 34
Actelion Java MolfileCreator 2.0

  0  0  0  0  0  0              0 V3000
M  V30 BEGIN CTAB
M  V30 COUNTS 7 6 0 0 0
M  V30 BEGIN ATOM
M  V30 1 O 0.0 0.0 0.0 0
M  V30 2 C 0.0 -1.4989 0.0 0
M  V30 3 C -1.2982 -2.2542 0.0 0
M  V30 4 C 1.2982 -2.2542 0.0 0
M  V30 5 C -2.5965 -1.5107 0.0 0
M  V30 6 O -3.8948 -2.266 0.0 0
M  V30 7 C -2.5965 -0.0118 0.0 0
M  V30 END ATOM
M  V30 BEGIN BOND
M  V30 1 1 1 2
M  V30 2 1 2 3
M  V30 3 1 2 4
M  V30 4 1 3 5
M  V30 5 1 5 6
M  V30 6 1 5 7
M  V30 END BOND
M  V30 END CTAB
M  END
>  <Molecule Name>
2,4-Pentanediol

>  <Activity Label>
0

>  <SMILES>
CC(CC(C)O)O

>  <Molecular Formula>
C5H12O2

>  <InChIKey>
GTCCGKPBSJZVRZ-UHFFFAOYSA-N

>  <Repellency>
Inactive

>  <Reference DOI>
10.3390/toxics11100837

>  <Target Organism>
Not applied

$$$$
Compound 35
Actelion Java MolfileCreator 2.0

  0  0  0  0  0  0              0 V3000
M  V30 BEGIN CTAB
M  V30 COUNTS 7 6 0 0 0
M  V30 BEGIN ATOM
M  V30 1 O 0.0 0.0 0.0 0
M  V30 2 C 1.2991 0.744 0.0 0
M  V30 3 C 1.2991 2.244 0.0 0
M  V30 4 C 2.5983 -0.0118 0.0 0
M  V30 5 C -0.2007 2.244 0.0 0
M  V30 6 C 1.2991 3.7439 0.0 0
M  V30 7 C 2.7991 2.244 0.0 0
M  V30 END ATOM
M  V30 BEGIN BOND
M  V30 1 2 1 2
M  V30 2 1 2 3
M  V30 3 1 2 4
M  V30 4 1 3 5
M  V30 5 1 3 6
M  V30 6 1 3 7
M  V30 END BOND
M  V30 END CTAB
M  END
>  <Molecule Name>
Pinacolone

>  <Activity Label>
0

>  <SMILES>
CC(C)(C)C(C)=O

>  <Molecular Formula>
C6H12O

>  <InChIKey>
PJGSXYOJTGTZAV-UHFFFAOYSA-N

>  <Repellency>
Inactive

>  <Reference DOI>
10.3390/toxics11100837

>  <Target Organism>
Not applied

$$$$
Compound 36
Actelion Java MolfileCreator 2.0

  0  0  0  0  0  0              0 V3000
M  V30 BEGIN CTAB
M  V30 COUNTS 7 6 0 0 0
M  V30 BEGIN ATOM
M  V30 1 O 0.0 0.0 0.0 0
M  V30 2 C 0.0 -1.4989 0.0 0
M  V30 3 C 1.2982 -2.2542 0.0 0
M  V30 4 C -1.2982 -2.2542 0.0 0
M  V30 5 C 2.5965 -1.5107 0.0 0
M  V30 6 C 3.8948 -2.266 0.0 0
M  V30 7 C 2.5965 -0.0118 0.0 0
M  V30 END ATOM
M  V30 BEGIN BOND
M  V30 1 2 1 2
M  V30 2 1 2 3
M  V30 3 1 2 4
M  V30 4 1 3 5
M  V30 5 1 5 6
M  V30 6 1 5 7
M  V30 END BOND
M  V30 END CTAB
M  END
>  <Molecule Name>
Methyl iso-butyl ketone

>  <Activity Label>
0

>  <SMILES>
CC(C)CC(C)=O

>  <Molecular Formula>
C6H12O

>  <InChIKey>
NTIZESTWPVYFNL-UHFFFAOYSA-N

>  <Repellency>
Inactive

>  <Reference DOI>
10.3390/toxics11100837

>  <Target Organism>
Not applied

$$$$
Compound 37
Actelion Java MolfileCreator 2.0

  0  0  0  0  0  0              0 V3000
M  V30 BEGIN CTAB
M  V30 COUNTS 7 6 0 0 0
M  V30 BEGIN ATOM
M  V30 1 O 0.0 0.0 0.0 0
M  V30 2 C 1.3004 -0.7475 0.0 0
M  V30 3 C -1.3004 -0.7475 0.0 0
M  V30 4 C 2.6009 0.0 0.0 0
M  V30 5 C -2.6009 0.0 0.0 0
M  V30 6 C 3.9014 -0.7475 0.0 0
M  V30 7 C -3.9014 -0.7475 0.0 0
M  V30 END ATOM
M  V30 BEGIN BOND
M  V30 1 1 1 2
M  V30 2 1 1 3
M  V30 3 1 2 4
M  V30 4 1 3 5
M  V30 5 2 4 6
M  V30 6 2 5 7
M  V30 END BOND
M  V30 END CTAB
M  END
>  <Molecule Name>
Diallyl ether

>  <Activity Label>
0

>  <SMILES>
C=CCOCC=C

>  <Molecular Formula>
C6H10O

>  <InChIKey>
ATVJXMYDOSMEPO-UHFFFAOYSA-N

>  <Repellency>
Inactive

>  <Reference DOI>
10.3390/toxics11100837

>  <Target Organism>
Not applied

$$$$
Compound 38
Actelion Java MolfileCreator 2.0

  0  0  0  0  0  0              0 V3000
M  V30 BEGIN CTAB
M  V30 COUNTS 7 6 0 0 0
M  V30 BEGIN ATOM
M  V30 1 O 0.0 0.0 0.0 0
M  V30 2 C 1.3004 -0.7475 0.0 0
M  V30 3 C -1.3004 -0.7475 0.0 0
M  V30 4 C 2.6009 0.0 0.0 0
M  V30 5 C 0.5529 -2.0479 0.0 0
M  V30 6 C 2.0479 -2.0479 0.0 0
M  V30 7 C 3.9014 -0.7475 0.0 0
M  V30 END ATOM
M  V30 BEGIN BOND
M  V30 1 1 1 2
M  V30 2 1 1 3
M  V30 3 1 2 4
M  V30 4 1 2 5
M  V30 5 1 2 6
M  V30 6 1 4 7
M  V30 END BOND
M  V30 END CTAB
M  END
>  <Molecule Name>
Methyl tert-amyl ether

>  <Activity Label>
0

>  <SMILES>
CCC(C)(C)OC

>  <Molecular Formula>
C6H14O

>  <InChIKey>
HVZJRWJGKQPSFL-UHFFFAOYSA-N

>  <Repellency>
Inactive

>  <Reference DOI>
10.3390/toxics11100837

>  <Target Organism>
Not applied

$$$$
Compound 39
Actelion Java MolfileCreator 2.0

  0  0  0  0  0  0              0 V3000
M  V30 BEGIN CTAB
M  V30 COUNTS 7 6 0 0 0
M  V30 BEGIN ATOM
M  V30 1 O 0.0 0.0 0.0 0
M  V30 2 C -1.2995 0.7442 0.0 0
M  V30 3 C 1.2995 0.7442 0.0 0
M  V30 4 C -2.599 -0.0118 0.0 0 CFG=1
M  V30 5 O -2.599 -1.5121 0.0 0
M  V30 6 C -3.8985 0.7324 0.0 0
M  V30 7 O -5.198 -0.0236 0.0 0
M  V30 END ATOM
M  V30 BEGIN BOND
M  V30 1 1 1 2
M  V30 2 1 1 3
M  V30 3 1 2 4
M  V30 4 1 4 5 CFG=1
M  V30 5 1 4 6
M  V30 6 1 6 7
M  V30 END BOND
M  V30 BEGIN COLLECTION
M  V30 MDLV30/STERAC1 ATOMS=(1 4)
M  V30 END COLLECTION
M  V30 END CTAB
M  END
>  <Molecule Name>
Glycerol monomethyl ether

>  <Activity Label>
0

>  <SMILES>
COCC(CO)O

>  <Molecular Formula>
C4H10O3

>  <InChIKey>
PSJBSUHYCGQTHZ-UHFFFAOYSA-N

>  <Repellency>
Inactive

>  <Reference DOI>
10.3390/toxics11100837

>  <Target Organism>
Not applied

$$$$
Compound 40
Actelion Java MolfileCreator 2.0

  0  0  0  0  0  0              0 V3000
M  V30 BEGIN CTAB
M  V30 COUNTS 7 6 0 0 0
M  V30 BEGIN ATOM
M  V30 1 O 0.0 0.0 0.0 0
M  V30 2 C 0.0 1.4998 0.0 0
M  V30 3 O -1.2991 2.2439 0.0 0
M  V30 4 C 1.2991 2.2439 0.0 0 CFG=1
M  V30 5 C -2.5982 1.488 0.0 0
M  V30 6 O 2.5982 1.488 0.0 0
M  V30 7 C 1.2991 3.7438 0.0 0
M  V30 END ATOM
M  V30 BEGIN BOND
M  V30 1 2 1 2
M  V30 2 1 2 3
M  V30 3 1 2 4
M  V30 4 1 3 5
M  V30 5 1 4 6 CFG=3
M  V30 6 1 4 7
M  V30 END BOND
M  V30 BEGIN COLLECTION
M  V30 MDLV30/STERAC1 ATOMS=(1 4)
M  V30 END COLLECTION
M  V30 END CTAB
M  END
>  <Molecule Name>
Lactic acid, methyl ester

>  <Activity Label>
0

>  <SMILES>
CC(C(OC)=O)O

>  <Molecular Formula>
C4H8O3

>  <InChIKey>
LPEKGGXMPWTOCB-UHFFFAOYSA-N

>  <Repellency>
Inactive

>  <Reference DOI>
10.3390/toxics11100837

>  <Target Organism>
Not applied

$$$$
Compound 41
Actelion Java MolfileCreator 2.0

  0  0  0  0  0  0              0 V3000
M  V30 BEGIN CTAB
M  V30 COUNTS 7 6 0 0 0
M  V30 BEGIN ATOM
M  V30 1 O 0.0 0.0 0.0 0
M  V30 2 C -1.3004 -0.7475 0.0 0
M  V30 3 C 1.3004 -0.7475 0.0 0
M  V30 4 C -2.6009 0.0 0.0 0
M  V30 5 C 2.6009 0.0 0.0 0
M  V30 6 O -3.9014 -0.7475 0.0 0
M  V30 7 O 3.9014 -0.7475 0.0 0
M  V30 END ATOM
M  V30 BEGIN BOND
M  V30 1 1 1 2
M  V30 2 1 1 3
M  V30 3 1 2 4
M  V30 4 1 3 5
M  V30 5 1 4 6
M  V30 6 1 5 7
M  V30 END BOND
M  V30 END CTAB
M  END
>  <Molecule Name>
Diethylene glycol

>  <Activity Label>
0

>  <SMILES>
OCCOCCO

>  <Molecular Formula>
C4H10O3

>  <InChIKey>
MTHSVFCYNBDYFN-UHFFFAOYSA-N

>  <Repellency>
Inactive

>  <Reference DOI>
10.3390/toxics11100837

>  <Target Organism>
Not applied

$$$$
Compound 42
Actelion Java MolfileCreator 2.0

  0  0  0  0  0  0              0 V3000
M  V30 BEGIN CTAB
M  V30 COUNTS 7 6 0 0 0
M  V30 BEGIN ATOM
M  V30 1 O 0.0 0.0 0.0 0
M  V30 2 C -1.2986 -0.7555 0.0 0
M  V30 3 C 1.2986 -0.7555 0.0 0
M  V30 4 C -1.2986 -2.2549 0.0 0
M  V30 5 C -2.5973 -0.0118 0.0 0
M  V30 6 O 0.0 -2.9987 0.0 0
M  V30 7 O -3.896 -0.7673 0.0 0
M  V30 END ATOM
M  V30 BEGIN BOND
M  V30 1 1 1 2
M  V30 2 1 1 3
M  V30 3 1 2 4
M  V30 4 1 2 5
M  V30 5 1 4 6
M  V30 6 1 5 7
M  V30 END BOND
M  V30 END CTAB
M  END
>  <Molecule Name>
2-Methyl glycerine

>  <Activity Label>
0

>  <SMILES>
COC(CO)CO

>  <Molecular Formula>
C4H10O3

>  <InChIKey>
RKOGJKGQMPZCGG-UHFFFAOYSA-N

>  <Repellency>
Inactive

>  <Reference DOI>
10.3390/toxics11100837

>  <Target Organism>
Not applied

$$$$
Compound 43
Actelion Java MolfileCreator 2.0

  0  0  0  0  0  0              0 V3000
M  V30 BEGIN CTAB
M  V30 COUNTS 7 6 0 0 0
M  V30 BEGIN ATOM
M  V30 1 N 0.0 0.0 0.0 0
M  V30 2 C -1.2982 -0.7553 0.0 0
M  V30 3 C -2.5965 -1.5107 0.0 0
M  V30 4 C -3.8948 -0.7671 0.0 0
M  V30 5 C -5.193 -1.5225 0.0 0
M  V30 6 C -5.193 -3.0214 0.0 0
M  V30 7 N -5.193 -4.5203 0.0 0
M  V30 END ATOM
M  V30 BEGIN BOND
M  V30 1 3 1 2
M  V30 2 1 2 3
M  V30 3 1 3 4
M  V30 4 1 4 5
M  V30 5 1 5 6
M  V30 6 3 6 7
M  V30 END BOND
M  V30 END CTAB
M  END
>  <Molecule Name>
Glutaronitrile

>  <Activity Label>
0

>  <SMILES>
N#CCCCC#N

>  <Molecular Formula>
C5H6N2

>  <InChIKey>
ZTOMUSMDRMJOTH-UHFFFAOYSA-N

>  <Repellency>
Inactive

>  <Reference DOI>
10.3390/toxics11100837

>  <Target Organism>
Not applied

$$$$
Compound 44
Actelion Java MolfileCreator 2.0

  0  0  0  0  0  0              0 V3000
M  V30 BEGIN CTAB
M  V30 COUNTS 7 6 0 0 0
M  V30 BEGIN ATOM
M  V30 1 O 0.0 0.0 0.0 0
M  V30 2 C 1.2995 0.7442 0.0 0
M  V30 3 N 2.599 -0.0118 0.0 0
M  V30 4 C 1.2995 2.2446 0.0 0
M  V30 5 C 3.8985 0.7324 0.0 0
M  V30 6 C 5.198 -0.0236 0.0 0
M  V30 7 O 6.4976 0.7206 0.0 0
M  V30 END ATOM
M  V30 BEGIN BOND
M  V30 1 2 1 2
M  V30 2 1 2 3
M  V30 3 1 2 4
M  V30 4 1 3 5
M  V30 5 1 5 6
M  V30 6 1 6 7
M  V30 END BOND
M  V30 END CTAB
M  END
>  <Molecule Name>
N-(2-hydroxyethyl)acetamide

>  <Activity Label>
0

>  <SMILES>
CC(NCCO)=O

>  <Molecular Formula>
C4H9NO2

>  <InChIKey>
PVCJKHHOXFKFRP-UHFFFAOYSA-N

>  <Repellency>
Inactive

>  <Reference DOI>
10.3390/toxics11100837

>  <Target Organism>
Not applied

$$$$
Compound 45
Actelion Java MolfileCreator 2.0

  0  0  0  0  0  0              0 V3000
M  V30 BEGIN CTAB
M  V30 COUNTS 7 6 0 0 0
M  V30 BEGIN ATOM
M  V30 1 O 0.0 0.0 0.0 0
M  V30 2 C 0.0 1.5004 0.0 0
M  V30 3 O -1.2995 2.2447 0.0 0
M  V30 4 C 1.2995 2.2447 0.0 0
M  V30 5 C -2.5991 1.4885 0.0 0
M  V30 6 C 1.2995 3.7451 0.0 0
M  V30 7 N 1.2995 5.2455 0.0 0
M  V30 END ATOM
M  V30 BEGIN BOND
M  V30 1 2 1 2
M  V30 2 1 2 3
M  V30 3 1 2 4
M  V30 4 1 3 5
M  V30 5 1 4 6
M  V30 6 3 6 7
M  V30 END BOND
M  V30 END CTAB
M  END
>  <Molecule Name>
Cyanoacetic acid, methyl ester

>  <Activity Label>
0

>  <SMILES>
COC(CC#N)=O

>  <Molecular Formula>
C4H5NO2

>  <InChIKey>
ANGDWNBGPBMQHW-UHFFFAOYSA-N

>  <Repellency>
Inactive

>  <Reference DOI>
10.3390/toxics11100837

>  <Target Organism>
Not applied

$$$$
Compound 46
Actelion Java MolfileCreator 2.0

  0  0  0  0  0  0              0 V3000
M  V30 BEGIN CTAB
M  V30 COUNTS 7 6 0 0 0
M  V30 BEGIN ATOM
M  V30 1 O 0.0 0.0 0.0 0
M  V30 2 N -1.2986 -0.7555 0.0 0 CHG=1
M  V30 3 O -1.2986 -2.2549 0.0 0 CHG=-1
M  V30 4 C -2.5973 -0.0118 0.0 0
M  V30 5 C -3.896 -0.7673 0.0 0
M  V30 6 C -5.1946 -0.0236 0.0 0
M  V30 7 C -6.4933 -0.7792 0.0 0
M  V30 END ATOM
M  V30 BEGIN BOND
M  V30 1 2 1 2
M  V30 2 1 2 3
M  V30 3 1 2 4
M  V30 4 1 4 5
M  V30 5 1 5 6
M  V30 6 1 6 7
M  V30 END BOND
M  V30 END CTAB
M  END
>  <Molecule Name>
1-Nitrobutane

>  <Activity Label>
0

>  <SMILES>
CCCC[N+]([O-])=O

>  <Molecular Formula>
C4H9NO2

>  <InChIKey>
NALZTFARIYUCBY-UHFFFAOYSA-N

>  <Repellency>
Inactive

>  <Reference DOI>
10.3390/toxics11100837

>  <Target Organism>
Not applied

$$$$
Compound 47
Actelion Java MolfileCreator 2.0

  0  0  0  0  0  0              0 V3000
M  V30 BEGIN CTAB
M  V30 COUNTS 7 6 0 0 0
M  V30 BEGIN ATOM
M  V30 1 O 0.0 0.0 0.0 0
M  V30 2 C -1.2995 0.7442 0.0 0
M  V30 3 N -1.2995 2.2446 0.0 0
M  V30 4 C 0.0 2.9889 0.0 0
M  V30 5 C -2.599 2.9889 0.0 0
M  V30 6 C 1.2995 2.2328 0.0 0
M  V30 7 C -3.8985 2.2328 0.0 0
M  V30 END ATOM
M  V30 BEGIN BOND
M  V30 1 2 1 2
M  V30 2 1 2 3
M  V30 3 1 3 4
M  V30 4 1 3 5
M  V30 5 1 4 6
M  V30 6 1 5 7
M  V30 END BOND
M  V30 END CTAB
M  END
>  <Molecule Name>
N,N-Diethylformamide

>  <Activity Label>
0

>  <SMILES>
CCN(CC)C=O

>  <Molecular Formula>
C5H11NO

>  <InChIKey>
SUAKHGWARZSWIH-UHFFFAOYSA-N

>  <Repellency>
Inactive

>  <Reference DOI>
10.3390/toxics11100837

>  <Target Organism>
Not applied

$$$$
Compound 48
Actelion Java MolfileCreator 2.0

  0  0  0  0  0  0              0 V3000
M  V30 BEGIN CTAB
M  V30 COUNTS 7 6 0 0 0
M  V30 BEGIN ATOM
M  V30 1 O 0.0 0.0 0.0 0
M  V30 2 C 1.2991 0.744 0.0 0
M  V30 3 N 2.5982 -0.0118 0.0 0
M  V30 4 C 1.2991 2.2439 0.0 0
M  V30 5 C 3.8973 0.7322 0.0 0
M  V30 6 C 5.1964 -0.0236 0.0 0
M  V30 7 C 3.8973 2.2321 0.0 0
M  V30 END ATOM
M  V30 BEGIN BOND
M  V30 1 2 1 2
M  V30 2 1 2 3
M  V30 3 1 2 4
M  V30 4 1 3 5
M  V30 5 1 5 6
M  V30 6 1 5 7
M  V30 END BOND
M  V30 END CTAB
M  END
>  <Molecule Name>
N-iso-Propylacetamide

>  <Activity Label>
0

>  <SMILES>
CC(C)NC(C)=O

>  <Molecular Formula>
C5H11NO

>  <InChIKey>
PDUSWJORWQPNRP-UHFFFAOYSA-N

>  <Repellency>
Inactive

>  <Reference DOI>
10.3390/toxics11100837

>  <Target Organism>
Not applied

$$$$
Compound 49
Actelion Java MolfileCreator 2.0

  0  0  0  0  0  0              0 V3000
M  V30 BEGIN CTAB
M  V30 COUNTS 7 6 0 0 0
M  V30 BEGIN ATOM
M  V30 1 Cl 0.0 0.0 0.0 0
M  V30 2 C -1.2986 -0.7555 0.0 0
M  V30 3 C -2.5973 -0.0118 0.0 0
M  V30 4 N -3.896 -0.7673 0.0 0
M  V30 5 C -5.1946 -0.0236 0.0 0
M  V30 6 O -6.4933 -0.7792 0.0 0
M  V30 7 C -5.1946 1.4757 0.0 0
M  V30 END ATOM
M  V30 BEGIN BOND
M  V30 1 1 1 2
M  V30 2 1 2 3
M  V30 3 1 3 4
M  V30 4 1 4 5
M  V30 5 2 5 6
M  V30 6 1 5 7
M  V30 END BOND
M  V30 END CTAB
M  END
>  <Molecule Name>
N-Beta-Chloroethylacetamide

>  <Activity Label>
0

>  <SMILES>
CC(NCCCl)=O

>  <Molecular Formula>
C4H8NOCl

>  <InChIKey>
HSKNJSHFPPHTAQ-UHFFFAOYSA-N

>  <Repellency>
Inactive

>  <Reference DOI>
10.3390/toxics11100837

>  <Target Organism>
Not applied

$$$$
Compound 50
Actelion Java MolfileCreator 2.0

  0  0  0  0  0  0              0 V3000
M  V30 BEGIN CTAB
M  V30 COUNTS 7 7 0 0 0
M  V30 BEGIN ATOM
M  V30 1 O 0.0 0.0 0.0 0
M  V30 2 C 1.2987 0.7556 0.0 0
M  V30 3 O 1.2987 2.255 0.0 0
M  V30 4 C 2.5974 0.0 0.0 0
M  V30 5 C 2.5974 2.9989 0.0 0
M  V30 6 C 3.8962 0.7438 0.0 0
M  V30 7 C 3.8962 2.2432 0.0 0
M  V30 END ATOM
M  V30 BEGIN BOND
M  V30 1 2 1 2
M  V30 2 1 2 3
M  V30 3 1 2 4
M  V30 4 1 3 5
M  V30 5 1 4 6
M  V30 6 1 5 7
M  V30 7 1 6 7
M  V30 END BOND
M  V30 END CTAB
M  END
>  <Molecule Name>
Valerolactone

>  <Activity Label>
0

>  <SMILES>
O=C1OCCCC1

>  <Molecular Formula>
C5H8O2

>  <InChIKey>
OZJPLYNZGCXSJM-UHFFFAOYSA-N

>  <Repellency>
Inactive

>  <Reference DOI>
10.3390/toxics11100837

>  <Target Organism>
Not applied

$$$$
Compound 51
Actelion Java MolfileCreator 2.0

  0  0  0  0  0  0              0 V3000
M  V30 BEGIN CTAB
M  V30 COUNTS 7 7 0 0 0
M  V30 BEGIN ATOM
M  V30 1 O 0.0 0.0 0.0 0
M  V30 2 C -1.3719 -0.6097 0.0 0
M  V30 3 C 0.9967 -1.1139 0.0 0
M  V30 4 C -1.2195 -2.0989 0.0 0
M  V30 5 C -2.6735 0.1407 0.0 0
M  V30 6 C 0.2462 -2.4155 0.0 0
M  V30 7 O -3.9751 -0.6097 0.0 0
M  V30 END ATOM
M  V30 BEGIN BOND
M  V30 1 1 1 2
M  V30 2 1 1 3
M  V30 3 2 2 4
M  V30 4 1 2 5
M  V30 5 2 3 6
M  V30 6 1 5 7
M  V30 7 1 4 6
M  V30 END BOND
M  V30 END CTAB
M  END
>  <Molecule Name>
Furfuryl alcohol

>  <Activity Label>
0

>  <SMILES>
OCc1ccc[o]1

>  <Molecular Formula>
C5H6O2

>  <InChIKey>
XPFVYQJUAUNWIW-UHFFFAOYSA-N

>  <Repellency>
Inactive

>  <Reference DOI>
10.3390/toxics11100837

>  <Target Organism>
Not applied

$$$$
Compound 52
Actelion Java MolfileCreator 2.0

  0  0  0  0  0  0              0 V3000
M  V30 BEGIN CTAB
M  V30 COUNTS 7 7 0 0 0
M  V30 BEGIN ATOM
M  V30 1 O 0.0 0.0 0.0 0
M  V30 2 C -1.3719 -0.6097 0.0 0 CFG=2
M  V30 3 C 0.9967 -1.1139 0.0 0
M  V30 4 C -1.2195 -2.0989 0.0 0
M  V30 5 C -2.6735 0.1407 0.0 0
M  V30 6 C 0.2462 -2.4155 0.0 0
M  V30 7 O -3.9751 -0.6097 0.0 0
M  V30 END ATOM
M  V30 BEGIN BOND
M  V30 1 1 1 2
M  V30 2 1 1 3
M  V30 3 1 2 4
M  V30 4 1 2 5 CFG=3
M  V30 5 1 3 6
M  V30 6 1 5 7
M  V30 7 1 4 6
M  V30 END BOND
M  V30 BEGIN COLLECTION
M  V30 MDLV30/STERAC1 ATOMS=(1 2)
M  V30 END COLLECTION
M  V30 END CTAB
M  END
>  <Molecule Name>
Tetrahydrofurfuryl alcohol

>  <Activity Label>
0

>  <SMILES>
OCC1OCCC1

>  <Molecular Formula>
C5H10O2

>  <InChIKey>
BSYVTEYKTMYBMK-UHFFFAOYSA-N

>  <Repellency>
Inactive

>  <Reference DOI>
10.3390/toxics11100837

>  <Target Organism>
Not applied

$$$$
Compound 53
Actelion Java MolfileCreator 2.0

  0  0  0  0  0  0              0 V3000
M  V30 BEGIN CTAB
M  V30 COUNTS 7 7 0 0 0
M  V30 BEGIN ATOM
M  V30 1 O 0.0 0.0 0.0 0
M  V30 2 C 1.2994 0.7442 0.0 0
M  V30 3 C 2.5989 -0.0118 0.0 0
M  V30 4 C 1.2994 2.2445 0.0 0
M  V30 5 C 3.8984 0.7324 0.0 0
M  V30 6 C 2.5989 2.9888 0.0 0
M  V30 7 C 3.8984 2.2327 0.0 0
M  V30 END ATOM
M  V30 BEGIN BOND
M  V30 1 2 1 2
M  V30 2 1 2 3
M  V30 3 1 2 4
M  V30 4 1 3 5
M  V30 5 1 4 6
M  V30 6 1 5 7
M  V30 7 1 6 7
M  V30 END BOND
M  V30 END CTAB
M  END
>  <Molecule Name>
cyclohexanone

>  <Activity Label>
0

>  <SMILES>
O=C1CCCCC1

>  <Molecular Formula>
C6H10O

>  <InChIKey>
JHIVVAPYMSGYDF-UHFFFAOYSA-N

>  <Repellency>
Inactive

>  <Reference DOI>
10.3390/toxics11100837

>  <Target Organism>
Not applied

$$$$
Compound 54
Actelion Java MolfileCreator 2.0

  0  0  0  0  0  0              0 V3000
M  V30 BEGIN CTAB
M  V30 COUNTS 7 7 0 0 0
M  V30 BEGIN ATOM
M  V30 1 O 0.0 0.0 0.0 0
M  V30 2 C 1.2994 0.7442 0.0 0
M  V30 3 C 2.5989 -0.0118 0.0 0
M  V30 4 C 1.2994 2.2445 0.0 0
M  V30 5 C 3.8984 0.7324 0.0 0
M  V30 6 C 2.5989 2.9888 0.0 0
M  V30 7 C 3.8984 2.2327 0.0 0
M  V30 END ATOM
M  V30 BEGIN BOND
M  V30 1 1 1 2
M  V30 2 1 2 3
M  V30 3 1 2 4
M  V30 4 1 3 5
M  V30 5 1 4 6
M  V30 6 1 5 7
M  V30 7 1 6 7
M  V30 END BOND
M  V30 END CTAB
M  END
>  <Molecule Name>
Cyclohexanol

>  <Activity Label>
0

>  <SMILES>
OC1CCCCC1

>  <Molecular Formula>
C6H12O

>  <InChIKey>
HPXRVTGHNJAIIH-UHFFFAOYSA-N

>  <Repellency>
Inactive

>  <Reference DOI>
10.3390/toxics11100837

>  <Target Organism>
Not applied

$$$$
Compound 55
Actelion Java MolfileCreator 2.0

  0  0  0  0  0  0              0 V3000
M  V30 BEGIN CTAB
M  V30 COUNTS 7 7 0 0 0
M  V30 BEGIN ATOM
M  V30 1 O 0.0 0.0 0.0 0
M  V30 2 C 1.4899 -0.1525 0.0 0
M  V30 3 O 2.2408 -1.4547 0.0 0
M  V30 4 C 2.4872 0.962 0.0 0
M  V30 5 C 3.7073 -1.138 0.0 0
M  V30 6 C 3.8598 0.3519 0.0 0 CFG=1
M  V30 7 O 5.1621 1.1028 0.0 0
M  V30 END ATOM
M  V30 BEGIN BOND
M  V30 1 2 1 2
M  V30 2 1 2 3
M  V30 3 1 2 4
M  V30 4 1 3 5
M  V30 5 1 4 6
M  V30 6 1 6 7 CFG=3
M  V30 7 1 5 6
M  V30 END BOND
M  V30 BEGIN COLLECTION
M  V30 MDLV30/STERAC1 ATOMS=(1 6)
M  V30 END COLLECTION
M  V30 END CTAB
M  END
>  <Molecule Name>
beta-Hydroxybutyrolactone

>  <Activity Label>
0

>  <SMILES>
OC(C1)COC1=O

>  <Molecular Formula>
C4H6O3

>  <InChIKey>
FUDDLSHBRSNCBV-UHFFFAOYSA-N

>  <Repellency>
Inactive

>  <Reference DOI>
10.3390/toxics11100837

>  <Target Organism>
Not applied

$$$$
Compound 56
Actelion Java MolfileCreator 2.0

  0  0  0  0  0  0              0 V3000
M  V30 BEGIN CTAB
M  V30 COUNTS 7 7 0 0 0
M  V30 BEGIN ATOM
M  V30 1 O 0.0 0.0 0.0 0
M  V30 2 C 0.0 1.4986 0.0 0
M  V30 3 C -1.298 -0.7434 0.0 0
M  V30 4 O -1.298 2.2538 0.0 0
M  V30 5 C -2.596 0.0 0.0 0
M  V30 6 C -2.596 1.5104 0.0 0
M  V30 7 O -3.894 -0.7552 0.0 0
M  V30 END ATOM
M  V30 BEGIN BOND
M  V30 1 1 1 2
M  V30 2 1 1 3
M  V30 3 1 2 4
M  V30 4 1 3 5
M  V30 5 1 4 6
M  V30 6 1 5 7
M  V30 7 1 5 6
M  V30 END BOND
M  V30 END CTAB
M  END
>  <Molecule Name>
Glycerol formal

>  <Activity Label>
0

>  <SMILES>
OC1COCOC1

>  <Molecular Formula>
C4H8O3

>  <InChIKey>
VCKSNYNNVSOWEE-UHFFFAOYSA-N

>  <Repellency>
Inactive

>  <Reference DOI>
10.3390/toxics11100837

>  <Target Organism>
Not applied

$$$$
Compound 57
Actelion Java MolfileCreator 2.0

  0  0  0  0  0  0              0 V3000
M  V30 BEGIN CTAB
M  V30 COUNTS 8 8 0 0 0
M  V30 BEGIN ATOM
M  V30 1 Br 0.0 0.0 0.0 0
M  V30 2 C 0.0 -1.5002 0.0 0
M  V30 3 C 1.2994 -2.2563 0.0 0
M  V30 4 C -1.2994 -2.2444 0.0 0
M  V30 5 Br 2.5988 -1.512 0.0 0
M  V30 6 C 1.2994 -3.7565 0.0 0
M  V30 7 C -1.2994 -3.7447 0.0 0
M  V30 8 C 0.0 -4.5008 0.0 0
M  V30 END ATOM
M  V30 BEGIN BOND
M  V30 1 1 1 2
M  V30 2 2 2 3
M  V30 3 1 2 4
M  V30 4 1 3 5
M  V30 5 1 3 6
M  V30 6 2 4 7
M  V30 7 2 6 8
M  V30 8 1 7 8
M  V30 END BOND
M  V30 END CTAB
M  END
>  <Molecule Name>
o-Dibromobenzene

>  <Activity Label>
0

>  <SMILES>
Brc(cccc1)c1Br

>  <Molecular Formula>
C6H4Br2

>  <InChIKey>
WQONPSCCEXUXTQ-UHFFFAOYSA-N

>  <Repellency>
Inactive

>  <Reference DOI>
10.3390/toxics11100837

>  <Target Organism>
Not applied

$$$$
Compound 58
Actelion Java MolfileCreator 2.0

  0  0  0  0  0  0              0 V3000
M  V30 BEGIN CTAB
M  V30 COUNTS 8 8 0 0 0
M  V30 BEGIN ATOM
M  V30 1 O 0.0 0.0 0.0 0
M  V30 2 C 0.3167 -1.4664 0.0 0
M  V30 3 C -0.6804 -2.5809 0.0 0
M  V30 4 C 1.6893 -2.0765 0.0 0
M  V30 5 O -2.1703 -2.4284 0.0 0
M  V30 6 C 0.0703 -3.8832 0.0 0
M  V30 7 C 1.5368 -3.5664 0.0 0
M  V30 8 C 2.9916 -1.3256 0.0 0
M  V30 END ATOM
M  V30 BEGIN BOND
M  V30 1 1 1 2
M  V30 2 1 2 3
M  V30 3 1 2 4
M  V30 4 1 3 5
M  V30 5 1 3 6
M  V30 6 1 4 7
M  V30 7 1 4 8
M  V30 8 1 6 7
M  V30 END BOND
M  V30 END CTAB
M  END
>  <Molecule Name>
1-Methyl-2,3-cyclopentanediol

>  <Activity Label>
0

>  <SMILES>
CC(CCC1O)C1O

>  <Molecular Formula>
C6H12O2

>  <InChIKey>
KANFKJUPLALTDB-UHFFFAOYSA-N

>  <Repellency>
Inactive

>  <Reference DOI>
10.3390/toxics11100837

>  <Target Organism>
Not applied

$$$$
Compound 59
Actelion Java MolfileCreator 2.0

  0  0  0  0  0  0              0 V3000
M  V30 BEGIN CTAB
M  V30 COUNTS 8 8 0 0 0
M  V30 BEGIN ATOM
M  V30 1 O 0.0 0.0 0.0 0
M  V30 2 C -1.2984 0.7554 0.0 0
M  V30 3 C -2.5969 0.0118 0.0 0
M  V30 4 C -1.2984 2.2546 0.0 0
M  V30 5 C -3.8954 0.7672 0.0 0
M  V30 6 C -2.5969 3.01 0.0 0
M  V30 7 O -5.1938 0.0118 0.0 0
M  V30 8 C -3.8954 2.2664 0.0 0
M  V30 END ATOM
M  V30 BEGIN BOND
M  V30 1 2 1 2
M  V30 2 1 2 3
M  V30 3 1 2 4
M  V30 4 1 3 5
M  V30 5 1 4 6
M  V30 6 2 5 7
M  V30 7 1 5 8
M  V30 8 1 6 8
M  V30 END BOND
M  V30 END CTAB
M  END
>  <Molecule Name>
1,3 Cyclohexanedione

>  <Activity Label>
0

>  <SMILES>
O=C(CCC1)CC1=O

>  <Molecular Formula>
C6H8O2

>  <InChIKey>
HJSLFCCWAKVHIW-UHFFFAOYSA-N

>  <Repellency>
Inactive

>  <Reference DOI>
10.3390/toxics11100837

>  <Target Organism>
Not applied

$$$$
Compound 60
Actelion Java MolfileCreator 2.0

  0  0  0  0  0  0              0 V3000
M  V30 BEGIN CTAB
M  V30 COUNTS 8 8 0 0 0
M  V30 BEGIN ATOM
M  V30 1 O 0.0 0.0 0.0 0
M  V30 2 C 0.0 1.5002 0.0 0
M  V30 3 C 1.2994 -0.756 0.0 0
M  V30 4 C 1.2994 2.2444 0.0 0
M  V30 5 C -0.7442 2.7997 0.0 0
M  V30 6 C -1.5002 1.5002 0.0 0
M  V30 7 C 2.5988 0.0 0.0 0
M  V30 8 O 2.5988 1.5002 0.0 0
M  V30 END ATOM
M  V30 BEGIN BOND
M  V30 1 1 1 2
M  V30 2 1 1 3
M  V30 3 1 2 4
M  V30 4 1 2 5
M  V30 5 1 2 6
M  V30 6 1 3 7
M  V30 7 1 4 8
M  V30 8 1 7 8
M  V30 END BOND
M  V30 END CTAB
M  END
>  <Molecule Name>
Dimethyldioxane

>  <Activity Label>
0

>  <SMILES>
CC1(C)OCCOC1

>  <Molecular Formula>
C6H12O2

>  <InChIKey>
HGRVTNYKVLTPAB-UHFFFAOYSA-N

>  <Repellency>
Inactive

>  <Reference DOI>
10.3390/toxics11100837

>  <Target Organism>
Not applied

$$$$
Compound 61
Actelion Java MolfileCreator 2.0

  0  0  0  0  0  0              0 V3000
M  V30 BEGIN CTAB
M  V30 COUNTS 8 8 0 0 0
M  V30 BEGIN ATOM
M  V30 1 O 0.0 0.0 0.0 0
M  V30 2 C 1.2991 0.744 0.0 0
M  V30 3 C 2.5982 -0.0118 0.0 0
M  V30 4 C 2.5982 -1.5116 0.0 0
M  V30 5 C 3.8973 0.7322 0.0 0
M  V30 6 C 3.8973 -2.2675 0.0 0
M  V30 7 C 5.1964 -0.0236 0.0 0
M  V30 8 C 5.1964 -1.5235 0.0 0
M  V30 END ATOM
M  V30 BEGIN BOND
M  V30 1 1 1 2
M  V30 2 1 2 3
M  V30 3 1 3 4
M  V30 4 1 3 5
M  V30 5 1 4 6
M  V30 6 1 5 7
M  V30 7 1 6 8
M  V30 8 1 7 8
M  V30 END BOND
M  V30 END CTAB
M  END
>  <Molecule Name>
Cyclohexylcarbinol

>  <Activity Label>
0

>  <SMILES>
OCC1CCCCC1

>  <Molecular Formula>
C7H14O

>  <InChIKey>
VSSAZBXXNIABDN-UHFFFAOYSA-N

>  <Repellency>
Inactive

>  <Reference DOI>
10.3390/toxics11100837

>  <Target Organism>
Not applied

$$$$
Compound 62
Actelion Java MolfileCreator 2.0

  0  0  0  0  0  0              0 V3000
M  V30 BEGIN CTAB
M  V30 COUNTS 8 8 0 0 0
M  V30 BEGIN ATOM
M  V30 1 O 0.0 0.0 0.0 0
M  V30 2 C 1.3003 -0.7565 0.0 0
M  V30 3 C 2.6007 -0.0118 0.0 0
M  V30 4 C 1.3003 -2.2579 0.0 0
M  V30 5 C 3.9011 -0.7684 0.0 0 CFG=2
M  V30 6 C 2.6007 -3.0026 0.0 0
M  V30 7 C 3.9011 -2.2697 0.0 0
M  V30 8 C 5.2015 -0.0236 0.0 0
M  V30 END ATOM
M  V30 BEGIN BOND
M  V30 1 2 1 2
M  V30 2 1 2 3
M  V30 3 1 2 4
M  V30 4 1 3 5
M  V30 5 1 4 6
M  V30 6 1 5 7
M  V30 7 1 5 8 CFG=1
M  V30 8 1 6 7
M  V30 END BOND
M  V30 BEGIN COLLECTION
M  V30 MDLV30/STERAC1 ATOMS=(1 5)
M  V30 END COLLECTION
M  V30 END CTAB
M  END
>  <Molecule Name>
m-Methylcyclohexanone

>  <Activity Label>
0

>  <SMILES>
CC(CCC1)CC1=O

>  <Molecular Formula>
C7H12O

>  <InChIKey>
UJBOOUHRTQVGRU-UHFFFAOYSA-N

>  <Repellency>
Inactive

>  <Reference DOI>
10.3390/toxics11100837

>  <Target Organism>
Not applied

$$$$
Compound 63
Actelion Java MolfileCreator 2.0

  0  0  0  0  0  0              0 V3000
M  V30 BEGIN CTAB
M  V30 COUNTS 8 8 0 0 0
M  V30 BEGIN ATOM
M  V30 1 O 0.0 0.0 0.0 0
M  V30 2 C 1.3003 -0.7565 0.0 0
M  V30 3 C 2.6007 -0.0118 0.0 0
M  V30 4 C 1.3003 -2.2579 0.0 0
M  V30 5 C 3.9011 -0.7684 0.0 0
M  V30 6 C 2.6007 -3.0026 0.0 0
M  V30 7 C 3.9011 -2.2697 0.0 0
M  V30 8 C 5.2015 -0.0236 0.0 0
M  V30 END ATOM
M  V30 BEGIN BOND
M  V30 1 1 1 2
M  V30 2 1 2 3
M  V30 3 1 2 4
M  V30 4 1 3 5
M  V30 5 1 4 6
M  V30 6 1 5 7
M  V30 7 1 5 8
M  V30 8 1 6 7
M  V30 END BOND
M  V30 END CTAB
M  END
>  <Molecule Name>
m-Methylcyclohexanol

>  <Activity Label>
0

>  <SMILES>
CC(CCC1)CC1O

>  <Molecular Formula>
C7H14O

>  <InChIKey>
HTSABYAWKQAHBT-UHFFFAOYSA-N

>  <Repellency>
Inactive

>  <Reference DOI>
10.3390/toxics11100837

>  <Target Organism>
Not applied

$$$$
Compound 64
Actelion Java MolfileCreator 2.0

  0  0  0  0  0  0              0 V3000
M  V30 BEGIN CTAB
M  V30 COUNTS 8 8 0 0 0
M  V30 BEGIN ATOM
M  V30 1 O 0.0 0.0 0.0 0
M  V30 2 C 1.3016 0.7455 0.0 0
M  V30 3 C 1.3016 2.2483 0.0 0
M  V30 4 C 2.6033 0.0 0.0 0
M  V30 5 C 2.6033 2.9938 0.0 0
M  V30 6 C 3.905 0.7455 0.0 0
M  V30 7 C 3.905 2.2365 0.0 0
M  V30 8 C 5.2066 2.982 0.0 0
M  V30 END ATOM
M  V30 BEGIN BOND
M  V30 1 1 1 2
M  V30 2 1 2 3
M  V30 3 1 2 4
M  V30 4 1 3 5
M  V30 5 1 4 6
M  V30 6 1 5 7
M  V30 7 1 7 8
M  V30 8 1 6 7
M  V30 END BOND
M  V30 END CTAB
M  END
>  <Molecule Name>
p-Methylcyclohexanol

>  <Activity Label>
0

>  <SMILES>
CC(CC1)CCC1O

>  <Molecular Formula>
C7H14O

>  <InChIKey>
MQWCXKGKQLNYQG-UHFFFAOYSA-N

>  <Repellency>
Inactive

>  <Reference DOI>
10.3390/toxics11100837

>  <Target Organism>
Not applied

$$$$
Compound 65
Actelion Java MolfileCreator 2.0

  0  0  0  0  0  0              0 V3000
M  V30 BEGIN CTAB
M  V30 COUNTS 8 8 0 0 0
M  V30 BEGIN ATOM
M  V30 1 O 0.0 0.0 0.0 0
M  V30 2 C 0.0 -1.5002 0.0 0
M  V30 3 C 1.2994 -2.2563 0.0 0
M  V30 4 C -1.2994 -2.2444 0.0 0
M  V30 5 C 1.2994 -3.7565 0.0 0
M  V30 6 C 2.5988 -1.512 0.0 0
M  V30 7 C -1.2994 -3.7447 0.0 0
M  V30 8 C 0.0 -4.5008 0.0 0
M  V30 END ATOM
M  V30 BEGIN BOND
M  V30 1 1 1 2
M  V30 2 1 2 3
M  V30 3 1 2 4
M  V30 4 1 3 5
M  V30 5 1 3 6
M  V30 6 1 4 7
M  V30 7 1 5 8
M  V30 8 1 7 8
M  V30 END BOND
M  V30 END CTAB
M  END
>  <Molecule Name>
o-Methylcyclohexanol

>  <Activity Label>
0

>  <SMILES>
CC(CCCC1)C1O

>  <Molecular Formula>
C7H14O

>  <InChIKey>
NDVWOBYBJYUSMF-UHFFFAOYSA-N

>  <Repellency>
Inactive

>  <Reference DOI>
10.3390/toxics11100837

>  <Target Organism>
Not applied

$$$$
Compound 66
Actelion Java MolfileCreator 2.0

  0  0  0  0  0  0              0 V3000
M  V30 BEGIN CTAB
M  V30 COUNTS 8 8 0 0 0
M  V30 BEGIN ATOM
M  V30 1 O 0.0 0.0 0.0 0
M  V30 2 C 1.2984 -0.7554 0.0 0
M  V30 3 C -1.2984 -0.7554 0.0 0
M  V30 4 C 1.2984 -2.2546 0.0 0
M  V30 5 C 2.5969 -0.0118 0.0 0
M  V30 6 C 2.5969 -3.01 0.0 0
M  V30 7 C 3.8954 -0.7672 0.0 0
M  V30 8 C 3.8954 -2.2664 0.0 0
M  V30 END ATOM
M  V30 BEGIN BOND
M  V30 1 1 1 2
M  V30 2 1 1 3
M  V30 3 2 2 4
M  V30 4 1 2 5
M  V30 5 1 4 6
M  V30 6 2 5 7
M  V30 7 2 6 8
M  V30 8 1 7 8
M  V30 END BOND
M  V30 END CTAB
M  END
>  <Molecule Name>
Anisole

>  <Activity Label>
0

>  <SMILES>
COc1ccccc1

>  <Molecular Formula>
C7H8O

>  <InChIKey>
RDOXTESZEPMUJZ-UHFFFAOYSA-N

>  <Repellency>
Inactive

>  <Reference DOI>
10.3390/toxics11100837

>  <Target Organism>
Not applied

$$$$
Compound 67
Actelion Java MolfileCreator 2.0

  0  0  0  0  0  0              0 V3000
M  V30 BEGIN CTAB
M  V30 COUNTS 8 8 0 0 0
M  V30 BEGIN ATOM
M  V30 1 S 0.0 0.0 0.0 0
M  V30 2 C -1.37 -0.6141 0.0 0
M  V30 3 C 1.0039 -1.1102 0.0 0
M  V30 4 C -2.6693 0.1299 0.0 0
M  V30 5 C -1.2165 -2.1023 0.0 0
M  V30 6 C 0.2598 -2.4094 0.0 0
M  V30 7 O -2.6693 1.6299 0.0 0
M  V30 8 C -3.9685 -0.6259 0.0 0
M  V30 END ATOM
M  V30 BEGIN BOND
M  V30 1 1 1 2
M  V30 2 1 1 3
M  V30 3 1 2 4
M  V30 4 2 2 5
M  V30 5 2 3 6
M  V30 6 2 4 7
M  V30 7 1 4 8
M  V30 8 1 5 6
M  V30 END BOND
M  V30 END CTAB
M  END
>  <Molecule Name>
2-Acetothienone

>  <Activity Label>
0

>  <SMILES>
CC(c1ccc[s]1)=O

>  <Molecular Formula>
C6H6OS

>  <InChIKey>
WYJOVVXUZNRJQY-UHFFFAOYSA-N

>  <Repellency>
Inactive

>  <Reference DOI>
10.3390/toxics11100837

>  <Target Organism>
Not applied

$$$$
Compound 68
Actelion Java MolfileCreator 2.0

  0  0  0  0  0  0              0 V3000
M  V30 BEGIN CTAB
M  V30 COUNTS 8 8 0 0 0
M  V30 BEGIN ATOM
M  V30 1 O 0.0 0.0 0.0 0
M  V30 2 C -1.2997 0.7444 0.0 0
M  V30 3 N -2.5994 0.0 0.0 0
M  V30 4 C -3.8992 0.7562 0.0 0
M  V30 5 C -2.5994 -1.5006 0.0 0
M  V30 6 C -5.1989 0.0118 0.0 0
M  V30 7 C -3.8992 -2.245 0.0 0
M  V30 8 O -5.1989 -1.4888 0.0 0
M  V30 END ATOM
M  V30 BEGIN BOND
M  V30 1 2 1 2
M  V30 2 1 2 3
M  V30 3 1 3 4
M  V30 4 1 3 5
M  V30 5 1 4 6
M  V30 6 1 5 7
M  V30 7 1 6 8
M  V30 8 1 7 8
M  V30 END BOND
M  V30 END CTAB
M  END
>  <Molecule Name>
4-Formylmorpholine

>  <Activity Label>
0

>  <SMILES>
O=CN1CCOCC1

>  <Molecular Formula>
C5H9NO2

>  <InChIKey>
LCEDQNDDFOCWGG-UHFFFAOYSA-N

>  <Repellency>
Inactive

>  <Reference DOI>
10.3390/toxics11100837

>  <Target Organism>
Not applied

$$$$
Compound 69
Actelion Java MolfileCreator 2.0

  0  0  0  0  0  0              0 V3000
M  V30 BEGIN CTAB
M  V30 COUNTS 8 8 0 0 0
M  V30 BEGIN ATOM
M  V30 1 O 0.0 0.0 0.0 0
M  V30 2 C 0.0 -1.5002 0.0 0
M  V30 3 N 1.2994 -2.2563 0.0 0
M  V30 4 C -1.2994 -2.2444 0.0 0
M  V30 5 C 1.2994 -3.7565 0.0 0
M  V30 6 C 2.5988 -1.512 0.0 0
M  V30 7 C -1.2994 -3.7447 0.0 0
M  V30 8 C 0.0 -4.5008 0.0 0
M  V30 END ATOM
M  V30 BEGIN BOND
M  V30 1 2 1 2
M  V30 2 1 2 3
M  V30 3 1 2 4
M  V30 4 1 3 5
M  V30 5 1 3 6
M  V30 6 2 4 7
M  V30 7 2 5 8
M  V30 8 1 7 8
M  V30 END BOND
M  V30 END CTAB
M  END
>  <Molecule Name>
1-Methyl-2-pyridone

>  <Activity Label>
0

>  <SMILES>
CN(C=CC=C1)C1=O

>  <Molecular Formula>
C6H7NO

>  <InChIKey>
DVVGIUUJYPYENY-UHFFFAOYSA-N

>  <Repellency>
Inactive

>  <Reference DOI>
10.3390/toxics11100837

>  <Target Organism>
Not applied

$$$$
Compound 70
Actelion Java MolfileCreator 2.0

  0  0  0  0  0  0              0 V3000
M  V30 BEGIN CTAB
M  V30 COUNTS 8 7 0 0 0
M  V30 BEGIN ATOM
M  V30 1 O 0.0 0.0 0.0 0
M  V30 2 C 0.0 1.5003 0.0 0
M  V30 3 C 1.2994 2.2445 0.0 0 CFG=1
M  V30 4 C -1.2994 2.2445 0.0 0
M  V30 5 O 1.2994 3.7448 0.0 0
M  V30 6 C 2.5989 1.4884 0.0 0
M  V30 7 C -2.5989 1.4884 0.0 0
M  V30 8 C 3.8984 2.2327 0.0 0
M  V30 END ATOM
M  V30 BEGIN BOND
M  V30 1 2 1 2
M  V30 2 1 2 3
M  V30 3 1 2 4
M  V30 4 1 3 5 CFG=1
M  V30 5 1 3 6
M  V30 6 1 4 7
M  V30 7 1 6 8
M  V30 END BOND
M  V30 BEGIN COLLECTION
M  V30 MDLV30/STERAC1 ATOMS=(1 3)
M  V30 END COLLECTION
M  V30 END CTAB
M  END
>  <Molecule Name>
3-Hydroxy-4-hexanone

>  <Activity Label>
0

>  <SMILES>
CCC(C(CC)=O)O

>  <Molecular Formula>
C6H12O2

>  <InChIKey>
SKCYVGUCBRYGTE-UHFFFAOYSA-N

>  <Repellency>
Inactive

>  <Reference DOI>
10.3390/toxics11100837

>  <Target Organism>
Not applied

$$$$
Compound 71
Actelion Java MolfileCreator 2.0

  0  0  0  0  0  0              0 V3000
M  V30 BEGIN CTAB
M  V30 COUNTS 8 7 0 0 0
M  V30 BEGIN ATOM
M  V30 1 O 0.0 0.0 0.0 0
M  V30 2 C 0.0 -1.499 0.0 0
M  V30 3 O -1.2983 -2.2544 0.0 0
M  V30 4 C 1.2983 -2.2544 0.0 0
M  V30 5 C -2.5967 -1.5108 0.0 0
M  V30 6 C 2.5967 -1.5108 0.0 0
M  V30 7 C -3.895 -2.2662 0.0 0
M  V30 8 C 3.895 -2.2662 0.0 0
M  V30 END ATOM
M  V30 BEGIN BOND
M  V30 1 2 1 2
M  V30 2 1 2 3
M  V30 3 1 2 4
M  V30 4 1 3 5
M  V30 5 2 4 6
M  V30 6 1 5 7
M  V30 7 1 6 8
M  V30 END BOND
M  V30 END CTAB
M  END
>  <Molecule Name>
Crotonic acid, ethyl ester

>  <Activity Label>
0

>  <SMILES>
CCOC(/C=C/C)=O

>  <Molecular Formula>
C6H10O2

>  <InChIKey>
ZFDIRQKJPRINOQ-HWKANZROSA-N

>  <Repellency>
Inactive

>  <Reference DOI>
10.3390/toxics11100837

>  <Target Organism>
Not applied

$$$$
Compound 72
Actelion Java MolfileCreator 2.0

  0  0  0  0  0  0              0 V3000
M  V30 BEGIN CTAB
M  V30 COUNTS 8 7 0 0 0
M  V30 BEGIN ATOM
M  V30 1 O 0.0 0.0 0.0 0
M  V30 2 C 0.0 -1.4994 0.0 0
M  V30 3 O -1.2987 -2.255 0.0 0
M  V30 4 C 1.2987 -2.255 0.0 0
M  V30 5 C -2.5974 -1.5112 0.0 0
M  V30 6 C 2.5974 -1.5112 0.0 0
M  V30 7 C 1.2987 -3.7545 0.0 0
M  V30 8 C -3.8962 -2.2669 0.0 0
M  V30 END ATOM
M  V30 BEGIN BOND
M  V30 1 2 1 2
M  V30 2 1 2 3
M  V30 3 1 2 4
M  V30 4 1 3 5
M  V30 5 1 4 6
M  V30 6 1 4 7
M  V30 7 1 5 8
M  V30 END BOND
M  V30 END CTAB
M  END
>  <Molecule Name>
alpha,alpha-Dimethylacetic acid, ethyl ester

>  <Activity Label>
0

>  <SMILES>
CCOC(C(C)C)=O

>  <Molecular Formula>
C6H12O2

>  <InChIKey>
WDAXFOBOLVPGLV-UHFFFAOYSA-N

>  <Repellency>
Inactive

>  <Reference DOI>
10.3390/toxics11100837

>  <Target Organism>
Not applied

$$$$
Compound 73
Actelion Java MolfileCreator 2.0

  0  0  0  0  0  0              0 V3000
M  V30 BEGIN CTAB
M  V30 COUNTS 8 7 0 0 0
M  V30 BEGIN ATOM
M  V30 1 O 0.0 0.0 0.0 0
M  V30 2 C -1.2987 -0.7556 0.0 0
M  V30 3 O -1.2987 -2.255 0.0 0
M  V30 4 C -2.5974 -0.0118 0.0 0
M  V30 5 C -3.8962 -0.7674 0.0 0
M  V30 6 C -5.1949 -0.0236 0.0 0
M  V30 7 C -5.1949 1.4758 0.0 0
M  V30 8 C -6.4937 -0.7792 0.0 0
M  V30 END ATOM
M  V30 BEGIN BOND
M  V30 1 2 1 2
M  V30 2 1 2 3
M  V30 3 1 2 4
M  V30 4 1 4 5
M  V30 5 1 5 6
M  V30 6 1 6 7
M  V30 7 1 6 8
M  V30 END BOND
M  V30 END CTAB
M  END
>  <Molecule Name>
iso-Caproic acid

>  <Activity Label>
0

>  <SMILES>
CC(C)CCC(O)=O

>  <Molecular Formula>
C6H12O2

>  <InChIKey>
FGKJLKRYENPLQH-UHFFFAOYSA-N

>  <Repellency>
Inactive

>  <Reference DOI>
10.3390/toxics11100837

>  <Target Organism>
Not applied

$$$$
Compound 74
Actelion Java MolfileCreator 2.0

  0  0  0  0  0  0              0 V3000
M  V30 BEGIN CTAB
M  V30 COUNTS 8 7 0 0 0
M  V30 BEGIN ATOM
M  V30 1 O 0.0 0.0 0.0 0
M  V30 2 C 0.0 1.5015 0.0 0
M  V30 3 C -1.3005 2.2464 0.0 0
M  V30 4 C 1.3005 2.2464 0.0 0
M  V30 5 C -2.6011 1.4897 0.0 0
M  V30 6 O -3.9016 0.7448 0.0 0
M  V30 7 C -1.8562 0.1891 0.0 0
M  V30 8 C -3.3459 2.7902 0.0 0
M  V30 END ATOM
M  V30 BEGIN BOND
M  V30 1 2 1 2
M  V30 2 1 2 3
M  V30 3 1 2 4
M  V30 4 1 3 5
M  V30 5 1 5 6
M  V30 6 1 5 7
M  V30 7 1 5 8
M  V30 END BOND
M  V30 END CTAB
M  END
>  <Molecule Name>
Diacetone alcohol

>  <Activity Label>
0

>  <SMILES>
CC(C)(CC(C)=O)O

>  <Molecular Formula>
C6H12O2

>  <InChIKey>
SWXVUIWOUIDPGS-UHFFFAOYSA-N

>  <Repellency>
Inactive

>  <Reference DOI>
10.3390/toxics11100837

>  <Target Organism>
Not applied

$$$$
Compound 75
Actelion Java MolfileCreator 2.0

  0  0  0  0  0  0              0 V3000
M  V30 BEGIN CTAB
M  V30 COUNTS 8 7 0 0 0
M  V30 BEGIN ATOM
M  V30 1 O 0.0 0.0 0.0 0
M  V30 2 C 0.7475 -1.3004 0.0 0
M  V30 3 C -0.5529 -2.0479 0.0 0
M  V30 4 C 2.0479 -0.5529 0.0 0
M  V30 5 C 1.495 -2.6009 0.0 0
M  V30 6 O -1.3004 -0.7475 0.0 0
M  V30 7 C 0.1945 -3.3484 0.0 0
M  V30 8 C -1.8534 -2.7954 0.0 0
M  V30 END ATOM
M  V30 BEGIN BOND
M  V30 1 1 1 2
M  V30 2 1 2 3
M  V30 3 1 2 4
M  V30 4 1 2 5
M  V30 5 1 3 6
M  V30 6 1 3 7
M  V30 7 1 3 8
M  V30 END BOND
M  V30 END CTAB
M  END
>  <Molecule Name>
Pinacol

>  <Activity Label>
0

>  <SMILES>
CC(C)(C(C)(C)O)O

>  <Molecular Formula>
C6H14O2

>  <InChIKey>
IVDFJHOHABJVEH-UHFFFAOYSA-N

>  <Repellency>
Inactive

>  <Reference DOI>
10.3390/toxics11100837

>  <Target Organism>
Not applied

$$$$
Compound 76
Actelion Java MolfileCreator 2.0

  0  0  0  0  0  0              0 V3000
M  V30 BEGIN CTAB
M  V30 COUNTS 8 7 0 0 0
M  V30 BEGIN ATOM
M  V30 1 O 0.0 0.0 0.0 0
M  V30 2 C 0.0 1.5003 0.0 0
M  V30 3 C 1.2994 2.2445 0.0 0
M  V30 4 C -1.2994 2.2445 0.0 0
M  V30 5 C 2.5989 1.4884 0.0 0
M  V30 6 C 1.2994 3.7448 0.0 0
M  V30 7 C -2.5989 1.4884 0.0 0
M  V30 8 O 3.8984 2.2327 0.0 0
M  V30 END ATOM
M  V30 BEGIN BOND
M  V30 1 1 1 2
M  V30 2 1 2 3
M  V30 3 1 2 4
M  V30 4 1 3 5
M  V30 5 1 3 6
M  V30 6 1 4 7
M  V30 7 1 5 8
M  V30 END BOND
M  V30 END CTAB
M  END
>  <Molecule Name>
2-Methyl-1,3-pentanediol

>  <Activity Label>
0

>  <SMILES>
CCC(C(C)CO)O

>  <Molecular Formula>
C6H14O2

>  <InChIKey>
SPXWGAHNKXLXAP-UHFFFAOYSA-N

>  <Repellency>
Inactive

>  <Reference DOI>
10.3390/toxics11100837

>  <Target Organism>
Not applied

$$$$
Compound 77
Actelion Java MolfileCreator 2.0

  0  0  0  0  0  0              0 V3000
M  V30 BEGIN CTAB
M  V30 COUNTS 8 7 0 0 0
M  V30 BEGIN ATOM
M  V30 1 O 0.0 0.0 0.0 0
M  V30 2 C 0.0 -1.499 0.0 0 CFG=2
M  V30 3 C -1.2983 -2.2544 0.0 0
M  V30 4 C 1.2983 -2.2544 0.0 0
M  V30 5 C -2.5967 -1.5108 0.0 0
M  V30 6 C -3.895 -2.2662 0.0 0
M  V30 7 C -5.1934 -1.5226 0.0 0
M  V30 8 O -6.4918 -2.278 0.0 0
M  V30 END ATOM
M  V30 BEGIN BOND
M  V30 1 1 2 1 CFG=1
M  V30 2 1 2 3
M  V30 3 1 2 4
M  V30 4 1 3 5
M  V30 5 1 5 6
M  V30 6 1 6 7
M  V30 7 1 7 8
M  V30 END BOND
M  V30 BEGIN COLLECTION
M  V30 MDLV30/STERAC1 ATOMS=(1 2)
M  V30 END COLLECTION
M  V30 END CTAB
M  END
>  <Molecule Name>
1,5-Hexanediol

>  <Activity Label>
0

>  <SMILES>
CC(CCCCO)O

>  <Molecular Formula>
C6H14O2

>  <InChIKey>
UNVGBIALRHLALK-UHFFFAOYSA-N

>  <Repellency>
Inactive

>  <Reference DOI>
10.3390/toxics11100837

>  <Target Organism>
Not applied

$$$$
Compound 78
Actelion Java MolfileCreator 2.0

  0  0  0  0  0  0              0 V3000
M  V30 BEGIN CTAB
M  V30 COUNTS 8 7 0 0 0
M  V30 BEGIN ATOM
M  V30 1 Br 0.0 0.0 0.0 0
M  V30 2 C -1.299 0.744 0.0 0
M  V30 3 C -2.5981 -0.0118 0.0 0
M  V30 4 C -3.8972 0.7322 0.0 0
M  V30 5 C -5.1963 -0.0236 0.0 0
M  V30 6 C -6.4954 0.7204 0.0 0
M  V30 7 O -6.4954 2.2202 0.0 0
M  V30 8 O -7.7945 -0.0354 0.0 0
M  V30 END ATOM
M  V30 BEGIN BOND
M  V30 1 1 1 2
M  V30 2 1 2 3
M  V30 3 1 3 4
M  V30 4 1 4 5
M  V30 5 1 5 6
M  V30 6 2 6 7
M  V30 7 1 6 8
M  V30 END BOND
M  V30 END CTAB
M  END
>  <Molecule Name>
delta-Bromovaleric acid

>  <Activity Label>
0

>  <SMILES>
OC(CCCCBr)=O

>  <Molecular Formula>
C5H9O2Br

>  <InChIKey>
WNXNUPJZWYOKMW-UHFFFAOYSA-N

>  <Repellency>
Inactive

>  <Reference DOI>
10.3390/toxics11100837

>  <Target Organism>
Not applied

$$$$
Compound 79
Actelion Java MolfileCreator 2.0

  0  0  0  0  0  0              0 V3000
M  V30 BEGIN CTAB
M  V30 COUNTS 8 7 0 0 0
M  V30 BEGIN ATOM
M  V30 1 O 0.0 0.0 0.0 0
M  V30 2 C 1.3004 0.7475 0.0 0
M  V30 3 C 2.6009 0.0 0.0 0
M  V30 4 C 3.9014 0.7475 0.0 0
M  V30 5 C 5.2018 0.0 0.0 0
M  V30 6 C 6.5023 0.7475 0.0 0
M  V30 7 C 7.8028 0.0 0.0 0
M  V30 8 C 9.1032 0.7475 0.0 0
M  V30 END ATOM
M  V30 BEGIN BOND
M  V30 1 2 1 2
M  V30 2 1 2 3
M  V30 3 1 3 4
M  V30 4 1 4 5
M  V30 5 1 5 6
M  V30 6 1 6 7
M  V30 7 1 7 8
M  V30 END BOND
M  V30 END CTAB
M  END
>  <Molecule Name>
n-Heptaldehyde

>  <Activity Label>
0

>  <SMILES>
CCCCCCC=O

>  <Molecular Formula>
C7H14O

>  <InChIKey>
FXHGMKSSBGDXIY-UHFFFAOYSA-N

>  <Repellency>
Inactive

>  <Reference DOI>
10.3390/toxics11100837

>  <Target Organism>
Not applied

$$$$
Compound 80
Actelion Java MolfileCreator 2.0

  0  0  0  0  0  0              0 V3000
M  V30 BEGIN CTAB
M  V30 COUNTS 8 7 0 0 0
M  V30 BEGIN ATOM
M  V30 1 O 0.0 0.0 0.0 0
M  V30 2 C 0.0 -1.499 0.0 0
M  V30 3 C 1.2983 -2.2544 0.0 0
M  V30 4 C -1.2983 -2.2544 0.0 0
M  V30 5 C 2.5967 -1.5108 0.0 0
M  V30 6 C 3.895 -2.2662 0.0 0
M  V30 7 C 5.1934 -1.5226 0.0 0
M  V30 8 C 6.4918 -2.278 0.0 0
M  V30 END ATOM
M  V30 BEGIN BOND
M  V30 1 2 1 2
M  V30 2 1 2 3
M  V30 3 1 2 4
M  V30 4 1 3 5
M  V30 5 1 5 6
M  V30 6 1 6 7
M  V30 7 1 7 8
M  V30 END BOND
M  V30 END CTAB
M  END
>  <Molecule Name>
Methyl n-amyl ketone

>  <Activity Label>
0

>  <SMILES>
CCCCCC(C)=O

>  <Molecular Formula>
C7H14O

>  <InChIKey>
CATSNJVOTSVZJV-UHFFFAOYSA-N

>  <Repellency>
Inactive

>  <Reference DOI>
10.3390/toxics11100837

>  <Target Organism>
Not applied

$$$$
Compound 81
Actelion Java MolfileCreator 2.0

  0  0  0  0  0  0              0 V3000
M  V30 BEGIN CTAB
M  V30 COUNTS 8 7 0 0 0
M  V30 BEGIN ATOM
M  V30 1 O 0.0 0.0 0.0 0
M  V30 2 C -1.299 0.744 0.0 0
M  V30 3 C -2.5981 -0.0118 0.0 0
M  V30 4 C -1.299 2.2438 0.0 0
M  V30 5 C -3.8972 0.7322 0.0 0
M  V30 6 C -5.1963 -0.0236 0.0 0
M  V30 7 C -6.4954 0.7204 0.0 0
M  V30 8 C -7.7945 -0.0354 0.0 0
M  V30 END ATOM
M  V30 BEGIN BOND
M  V30 1 1 1 2
M  V30 2 1 2 3
M  V30 3 1 2 4
M  V30 4 1 3 5
M  V30 5 1 5 6
M  V30 6 1 6 7
M  V30 7 1 7 8
M  V30 END BOND
M  V30 END CTAB
M  END
>  <Molecule Name>
Heptanol-2

>  <Activity Label>
0

>  <SMILES>
CCCCCC(C)O

>  <Molecular Formula>
C7H16O

>  <InChIKey>
CETWDUZRCINIHU-UHFFFAOYSA-N

>  <Repellency>
Inactive

>  <Reference DOI>
10.3390/toxics11100837

>  <Target Organism>
Not applied

$$$$
Compound 82
Actelion Java MolfileCreator 2.0

  0  0  0  0  0  0              0 V3000
M  V30 BEGIN CTAB
M  V30 COUNTS 8 7 0 0 0
M  V30 BEGIN ATOM
M  V30 1 O 0.0 0.0 0.0 0
M  V30 2 C -1.2987 -0.7556 0.0 0
M  V30 3 O -1.2987 -2.255 0.0 0
M  V30 4 C -2.5974 -0.0118 0.0 0 CFG=1
M  V30 5 O -2.5974 1.4876 0.0 0
M  V30 6 C -3.8962 -0.7674 0.0 0
M  V30 7 C -5.1949 -0.0236 0.0 0
M  V30 8 C -6.4937 -0.7792 0.0 0
M  V30 END ATOM
M  V30 BEGIN BOND
M  V30 1 2 1 2
M  V30 2 1 2 3
M  V30 3 1 2 4
M  V30 4 1 4 5 CFG=3
M  V30 5 1 4 6
M  V30 6 1 6 7
M  V30 7 1 7 8
M  V30 END BOND
M  V30 BEGIN COLLECTION
M  V30 MDLV30/STERAC1 ATOMS=(1 4)
M  V30 END COLLECTION
M  V30 END CTAB
M  END
>  <Molecule Name>
2-Hydroxyvaleric acid

>  <Activity Label>
0

>  <SMILES>
CCCC(C(O)=O)O

>  <Molecular Formula>
C5H10O3

>  <InChIKey>
JRHWHSJDIILJAT-UHFFFAOYSA-N

>  <Repellency>
Inactive

>  <Reference DOI>
10.3390/toxics11100837

>  <Target Organism>
Not applied

$$$$
Compound 83
Actelion Java MolfileCreator 2.0

  0  0  0  0  0  0              0 V3000
M  V30 BEGIN CTAB
M  V30 COUNTS 8 7 0 0 0
M  V30 BEGIN ATOM
M  V30 1 O 0.0 0.0 0.0 0
M  V30 2 C 0.0 1.5003 0.0 0
M  V30 3 O -1.2994 2.2445 0.0 0
M  V30 4 C 1.2994 2.2445 0.0 0
M  V30 5 C -2.5989 1.4884 0.0 0
M  V30 6 C 2.5989 1.4884 0.0 0
M  V30 7 O 3.8984 2.2327 0.0 0
M  V30 8 C 2.5989 -0.0118 0.0 0
M  V30 END ATOM
M  V30 BEGIN BOND
M  V30 1 2 1 2
M  V30 2 1 2 3
M  V30 3 1 2 4
M  V30 4 1 3 5
M  V30 5 1 4 6
M  V30 6 2 6 7
M  V30 7 1 6 8
M  V30 END BOND
M  V30 END CTAB
M  END
>  <Molecule Name>
Acetoacetic acid, methyl ester

>  <Activity Label>
0

>  <SMILES>
CC(CC(OC)=O)=O

>  <Molecular Formula>
C5H8O3

>  <InChIKey>
WRQNANDWMGAFTP-UHFFFAOYSA-N

>  <Repellency>
Inactive

>  <Reference DOI>
10.3390/toxics11100837

>  <Target Organism>
Not applied

$$$$
Compound 84
Actelion Java MolfileCreator 2.0

  0  0  0  0  0  0              0 V3000
M  V30 BEGIN CTAB
M  V30 COUNTS 8 7 0 0 0
M  V30 BEGIN ATOM
M  V30 1 O 0.0 0.0 0.0 0
M  V30 2 C 0.0 1.5003 0.0 0
M  V30 3 O -1.2994 2.2445 0.0 0
M  V30 4 C 1.2994 2.2445 0.0 0
M  V30 5 C -2.5989 1.4884 0.0 0
M  V30 6 C -3.8984 2.2327 0.0 0
M  V30 7 O -5.1979 1.4766 0.0 0
M  V30 8 C -3.8984 3.733 0.0 0
M  V30 END ATOM
M  V30 BEGIN BOND
M  V30 1 2 1 2
M  V30 2 1 2 3
M  V30 3 1 2 4
M  V30 4 1 3 5
M  V30 5 1 5 6
M  V30 6 2 6 7
M  V30 7 1 6 8
M  V30 END BOND
M  V30 END CTAB
M  END
>  <Molecule Name>
Acetoxyacetone

>  <Activity Label>
0

>  <SMILES>
CC(COC(C)=O)=O

>  <Molecular Formula>
C5H8O3

>  <InChIKey>
DBERHVIZRVGDFO-UHFFFAOYSA-N

>  <Repellency>
Inactive

>  <Reference DOI>
10.3390/toxics11100837

>  <Target Organism>
Not applied

$$$$
Compound 85
Actelion Java MolfileCreator 2.0

  0  0  0  0  0  0              0 V3000
M  V30 BEGIN CTAB
M  V30 COUNTS 8 7 0 0 0
M  V30 BEGIN ATOM
M  V30 1 O 0.0 0.0 0.0 0
M  V30 2 C 0.0 -1.4994 0.0 0
M  V30 3 O -1.2987 -2.255 0.0 0
M  V30 4 C 1.2987 -2.255 0.0 0
M  V30 5 C 2.5974 -1.5112 0.0 0
M  V30 6 C 3.8962 -2.2669 0.0 0
M  V30 7 O 5.1949 -1.523 0.0 0
M  V30 8 C 3.8962 -3.7663 0.0 0
M  V30 END ATOM
M  V30 BEGIN BOND
M  V30 1 2 1 2
M  V30 2 1 2 3
M  V30 3 1 2 4
M  V30 4 1 4 5
M  V30 5 1 5 6
M  V30 6 2 6 7
M  V30 7 1 6 8
M  V30 END BOND
M  V30 END CTAB
M  END
>  <Molecule Name>
Levulinic acid

>  <Activity Label>
0

>  <SMILES>
CC(CCC(O)=O)=O

>  <Molecular Formula>
C5H8O3

>  <InChIKey>
JOOXCMJARBKPKM-UHFFFAOYSA-N

>  <Repellency>
Inactive

>  <Reference DOI>
10.3390/toxics11100837

>  <Target Organism>
Not applied

$$$$
Compound 86
Actelion Java MolfileCreator 2.0

  0  0  0  0  0  0              0 V3000
M  V30 BEGIN CTAB
M  V30 COUNTS 8 7 0 0 0
M  V30 BEGIN ATOM
M  V30 1 O 0.0 0.0 0.0 0
M  V30 2 C 0.0 -1.4994 0.0 0
M  V30 3 O -1.2987 -2.255 0.0 0
M  V30 4 C 1.2987 -2.255 0.0 0
M  V30 5 C -2.5974 -1.5112 0.0 0
M  V30 6 O 2.5974 -1.5112 0.0 0
M  V30 7 C 1.2987 -3.7545 0.0 0
M  V30 8 C -3.8962 -2.2669 0.0 0
M  V30 END ATOM
M  V30 BEGIN BOND
M  V30 1 2 1 2
M  V30 2 1 2 3
M  V30 3 1 2 4
M  V30 4 1 3 5
M  V30 5 2 4 6
M  V30 6 1 4 7
M  V30 7 1 5 8
M  V30 END BOND
M  V30 END CTAB
M  END
>  <Molecule Name>
Pyruvic acid, ethyl ester

>  <Activity Label>
0

>  <SMILES>
CCOC(C(C)=O)=O

>  <Molecular Formula>
C5H8O3

>  <InChIKey>
XXRCUYVCPSWGCC-UHFFFAOYSA-N

>  <Repellency>
Inactive

>  <Reference DOI>
10.3390/toxics11100837

>  <Target Organism>
Not applied

$$$$
Compound 87
Actelion Java MolfileCreator 2.0

  0  0  0  0  0  0              0 V3000
M  V30 BEGIN CTAB
M  V30 COUNTS 8 7 0 0 0
M  V30 BEGIN ATOM
M  V30 1 N 0.0 0.0 0.0 0
M  V30 2 C 0.0 -1.4995 0.0 0
M  V30 3 C 0.0 -2.999 0.0 0
M  V30 4 C -1.2987 -3.7546 0.0 0
M  V30 5 C -2.5975 -3.0108 0.0 0
M  V30 6 C -3.8963 -3.7664 0.0 0
M  V30 7 C -3.8963 -5.2659 0.0 0
M  V30 8 N -3.8963 -6.7655 0.0 0
M  V30 END ATOM
M  V30 BEGIN BOND
M  V30 1 3 1 2
M  V30 2 1 2 3
M  V30 3 1 3 4
M  V30 4 1 4 5
M  V30 5 1 5 6
M  V30 6 1 6 7
M  V30 7 3 7 8
M  V30 END BOND
M  V30 END CTAB
M  END
>  <Molecule Name>
Adiponitrile

>  <Activity Label>
0

>  <SMILES>
N#CCCCCC#N

>  <Molecular Formula>
C6H8N2

>  <InChIKey>
BTGRAWJCKBQKAO-UHFFFAOYSA-N

>  <Repellency>
Inactive

>  <Reference DOI>
10.3390/toxics11100837

>  <Target Organism>
Not applied

$$$$
Compound 88
Actelion Java MolfileCreator 2.0

  0  0  0  0  0  0              0 V3000
M  V30 BEGIN CTAB
M  V30 COUNTS 8 7 0 0 0
M  V30 BEGIN ATOM
M  V30 1 O 0.0 0.0 0.0 0
M  V30 2 C 0.0 1.5003 0.0 0
M  V30 3 N -1.2994 2.2445 0.0 0
M  V30 4 C 1.2994 2.2445 0.0 0
M  V30 5 C -1.2994 3.7448 0.0 0
M  V30 6 C -2.5989 1.4884 0.0 0
M  V30 7 O 2.5989 1.4884 0.0 0
M  V30 8 C 3.8984 2.2327 0.0 0
M  V30 END ATOM
M  V30 BEGIN BOND
M  V30 1 2 1 2
M  V30 2 1 2 3
M  V30 3 1 2 4
M  V30 4 1 3 5
M  V30 5 1 3 6
M  V30 6 1 4 7
M  V30 7 1 7 8
M  V30 END BOND
M  V30 END CTAB
M  END
>  <Molecule Name>
N,N-Dimethyl methoxyacetamide

>  <Activity Label>
0

>  <SMILES>
CN(C)C(COC)=O

>  <Molecular Formula>
C5H11NO2

>  <InChIKey>
DZLUPKIRNOCKJB-UHFFFAOYSA-N

>  <Repellency>
Inactive

>  <Reference DOI>
10.3390/toxics11100837

>  <Target Organism>
Not applied

$$$$
Compound 89
Actelion Java MolfileCreator 2.0

  0  0  0  0  0  0              0 V3000
M  V30 BEGIN CTAB
M  V30 COUNTS 8 7 0 0 0
M  V30 BEGIN ATOM
M  V30 1 O 0.0 0.0 0.0 0
M  V30 2 C 0.0 1.5003 0.0 0
M  V30 3 N 1.2994 2.2445 0.0 0
M  V30 4 C -1.2994 2.2445 0.0 0
M  V30 5 C 2.5989 1.4884 0.0 0
M  V30 6 C -2.5989 1.4884 0.0 0
M  V30 7 C 3.8984 2.2327 0.0 0
M  V30 8 C 2.5989 -0.0118 0.0 0
M  V30 END ATOM
M  V30 BEGIN BOND
M  V30 1 2 1 2
M  V30 2 1 2 3
M  V30 3 1 2 4
M  V30 4 1 3 5
M  V30 5 1 4 6
M  V30 6 1 5 7
M  V30 7 1 5 8
M  V30 END BOND
M  V30 END CTAB
M  END
>  <Molecule Name>
N-iso-Propylpropionamide

>  <Activity Label>
0

>  <SMILES>
CCC(NC(C)C)=O

>  <Molecular Formula>
C6H13NO

>  <InChIKey>
KYKDOARTYFGHPC-UHFFFAOYSA-N

>  <Repellency>
Inactive

>  <Reference DOI>
10.3390/toxics11100837

>  <Target Organism>
Not applied

$$$$
Compound 90
Actelion Java MolfileCreator 2.0

  0  0  0  0  0  0              0 V3000
M  V30 BEGIN CTAB
M  V30 COUNTS 8 7 0 0 0
M  V30 BEGIN ATOM
M  V30 1 O 0.0 0.0 0.0 0
M  V30 2 C -1.299 0.744 0.0 0
M  V30 3 N -1.299 2.2438 0.0 0
M  V30 4 C -2.5981 -0.0118 0.0 0
M  V30 5 C 0.0 2.9879 0.0 0
M  V30 6 C -2.5981 2.9879 0.0 0
M  V30 7 C 1.299 2.232 0.0 0
M  V30 8 C -3.8972 2.232 0.0 0
M  V30 END ATOM
M  V30 BEGIN BOND
M  V30 1 2 1 2
M  V30 2 1 2 3
M  V30 3 1 2 4
M  V30 4 1 3 5
M  V30 5 1 3 6
M  V30 6 1 5 7
M  V30 7 1 6 8
M  V30 END BOND
M  V30 END CTAB
M  END
>  <Molecule Name>
N,N-Diethylacetamide

>  <Activity Label>
0

>  <SMILES>
CCN(CC)C(C)=O

>  <Molecular Formula>
C6H13NO

>  <InChIKey>
AJFDBNQQDYLMJN-UHFFFAOYSA-N

>  <Repellency>
Inactive

>  <Reference DOI>
10.3390/toxics11100837

>  <Target Organism>
Not applied

$$$$
Compound 91
Actelion Java MolfileCreator 2.0

  0  0  0  0  0  0              0 V3000
M  V30 BEGIN CTAB
M  V30 COUNTS 9 8 0 0 0
M  V30 BEGIN ATOM
M  V30 1 Cl 0.0 0.0 0.0 0
M  V30 2 C -1.4995 0.0 0.0 0
M  V30 3 F -2.9991 0.0 0.0 0
M  V30 4 F -1.4995 1.4995 0.0 0
M  V30 5 C -1.4995 -1.4995 0.0 0 CFG=1
M  V30 6 Cl -2.7984 -2.2552 0.0 0
M  V30 7 C -0.2007 -2.2552 0.0 0
M  V30 8 Cl 1.0981 -1.5113 0.0 0
M  V30 9 Cl -0.2007 -3.7548 0.0 0
M  V30 END ATOM
M  V30 BEGIN BOND
M  V30 1 1 1 2
M  V30 2 1 2 3
M  V30 3 1 2 4
M  V30 4 1 2 5
M  V30 5 1 5 6 CFG=3
M  V30 6 1 5 7
M  V30 7 1 7 8
M  V30 8 1 7 9
M  V30 END BOND
M  V30 BEGIN COLLECTION
M  V30 MDLV30/STERAC1 ATOMS=(1 5)
M  V30 END COLLECTION
M  V30 END CTAB
M  END
>  <Molecule Name>
1,1,2,3-Tetrachloro-3,3-difluoropropane

>  <Activity Label>
0

>  <SMILES>
FC(C(C(Cl)Cl)Cl)(F)Cl

>  <Molecular Formula>
C3H2Cl4F2

>  <InChIKey>
BSCVZPZOUUQZJJ-UHFFFAOYSA-N

>  <Repellency>
Inactive

>  <Reference DOI>
10.3390/toxics11100837

>  <Target Organism>
Not applied

$$$$
Compound 92
Actelion Java MolfileCreator 2.0

  0  0  0  0  0  0              0 V3000
M  V30 BEGIN CTAB
M  V30 COUNTS 9 8 0 0 0
M  V30 BEGIN ATOM
M  V30 1 O 0.0 0.0 0.0 0
M  V30 2 C 0.0 1.4998 0.0 0
M  V30 3 O 1.2991 2.2439 0.0 0
M  V30 4 C -1.2991 2.2439 0.0 0
M  V30 5 C 2.5982 1.488 0.0 0
M  V30 6 C -2.5982 1.488 0.0 0
M  V30 7 O -2.5982 -0.0118 0.0 0
M  V30 8 O -3.8973 2.2321 0.0 0
M  V30 9 C -5.1964 1.4762 0.0 0
M  V30 END ATOM
M  V30 BEGIN BOND
M  V30 1 2 1 2
M  V30 2 1 2 3
M  V30 3 1 2 4
M  V30 4 1 3 5
M  V30 5 1 4 6
M  V30 6 2 6 7
M  V30 7 1 6 8
M  V30 8 1 8 9
M  V30 END BOND
M  V30 END CTAB
M  END
>  <Molecule Name>
Malonic acid, dimethyl ester

>  <Activity Label>
0

>  <SMILES>
COC(CC(OC)=O)=O

>  <Molecular Formula>
C5H8O4

>  <InChIKey>
BEPAFCGSDWSTEL-UHFFFAOYSA-N

>  <Repellency>
Inactive

>  <Reference DOI>
10.3390/toxics11100837

>  <Target Organism>
Not applied

$$$$
Compound 93
Actelion Java MolfileCreator 2.0

  0  0  0  0  0  0              0 V3000
M  V30 BEGIN CTAB
M  V30 COUNTS 9 8 0 0 0
M  V30 BEGIN ATOM
M  V30 1 O 0.0 0.0 0.0 0
M  V30 2 C 0.0 -1.4994 0.0 0
M  V30 3 O -1.2987 -2.2551 0.0 0
M  V30 4 C 1.2987 -2.2551 0.0 0
M  V30 5 C -2.5975 -1.5112 0.0 0
M  V30 6 O 2.5975 -1.5112 0.0 0
M  V30 7 C -3.8963 -2.2669 0.0 0
M  V30 8 O -5.195 -1.5231 0.0 0
M  V30 9 C -6.4938 -2.2787 0.0 0
M  V30 END ATOM
M  V30 BEGIN BOND
M  V30 1 2 1 2
M  V30 2 1 2 3
M  V30 3 1 2 4
M  V30 4 1 3 5
M  V30 5 1 4 6
M  V30 6 1 5 7
M  V30 7 1 7 8
M  V30 8 1 8 9
M  V30 END BOND
M  V30 END CTAB
M  END
>  <Molecule Name>
Glycolic acid, beta-methoxyethyl ester

>  <Activity Label>
0

>  <SMILES>
COCCOC(CO)=O

>  <Molecular Formula>
C5H10O4

>  <InChIKey>
IVHPEUVYKMPFGU-UHFFFAOYSA-N

>  <Repellency>
Inactive

>  <Reference DOI>
10.3390/toxics11100837

>  <Target Organism>
Not applied

$$$$
Compound 94
Actelion Java MolfileCreator 2.0

  0  0  0  0  0  0              0 V3000
M  V30 BEGIN CTAB
M  V30 COUNTS 9 8 0 0 0
M  V30 BEGIN ATOM
M  V30 1 O 0.0 0.0 0.0 0
M  V30 2 C 0.0 -1.4994 0.0 0
M  V30 3 O -1.2987 -2.2551 0.0 0
M  V30 4 C 1.2987 -2.2551 0.0 0
M  V30 5 C -2.5975 -1.5112 0.0 0
M  V30 6 C 2.5975 -1.5112 0.0 0
M  V30 7 C -3.8963 -2.2669 0.0 0
M  V30 8 C 3.8963 -2.2669 0.0 0
M  V30 9 C 5.195 -1.5231 0.0 0
M  V30 END ATOM
M  V30 BEGIN BOND
M  V30 1 2 1 2
M  V30 2 1 2 3
M  V30 3 1 2 4
M  V30 4 1 3 5
M  V30 5 1 4 6
M  V30 6 1 5 7
M  V30 7 1 6 8
M  V30 8 1 8 9
M  V30 END BOND
M  V30 END CTAB
M  END
>  <Molecule Name>
Valeric acid, ethyl ester

>  <Activity Label>
0

>  <SMILES>
CCCCC(OCC)=O

>  <Molecular Formula>
C7H14O2

>  <InChIKey>
ICMAFTSLXCXHRK-UHFFFAOYSA-N

>  <Repellency>
Inactive

>  <Reference DOI>
10.3390/toxics11100837

>  <Target Organism>
Not applied

$$$$
Compound 95
Actelion Java MolfileCreator 2.0

  0  0  0  0  0  0              0 V3000
M  V30 BEGIN CTAB
M  V30 COUNTS 9 8 0 0 0
M  V30 BEGIN ATOM
M  V30 1 O 0.0 0.0 0.0 0
M  V30 2 C 0.0 1.4972 0.0 0
M  V30 3 O -1.2968 2.2518 0.0 0
M  V30 4 C 1.2968 2.2518 0.0 0
M  V30 5 C -2.5937 1.4972 0.0 0
M  V30 6 C -3.8905 2.2518 0.0 0
M  V30 7 C -5.1874 1.4972 0.0 0
M  V30 8 C -6.4842 2.2518 0.0 0
M  V30 9 C -7.7811 1.4972 0.0 0
M  V30 END ATOM
M  V30 BEGIN BOND
M  V30 1 2 1 2
M  V30 2 1 2 3
M  V30 3 1 2 4
M  V30 4 1 3 5
M  V30 5 1 5 6
M  V30 6 1 6 7
M  V30 7 1 7 8
M  V30 8 1 8 9
M  V30 END BOND
M  V30 END CTAB
M  END
>  <Molecule Name>
Acetic acid, amyl ester

>  <Activity Label>
0

>  <SMILES>
CCCCCOC(C)=O

>  <Molecular Formula>
C7H14O2

>  <InChIKey>
PGMYKACGEOXYJE-UHFFFAOYSA-N

>  <Repellency>
Inactive

>  <Reference DOI>
10.3390/toxics11100837

>  <Target Organism>
Not applied

$$$$
Compound 96
Actelion Java MolfileCreator 2.0

  0  0  0  0  0  0              0 V3000
M  V30 BEGIN CTAB
M  V30 COUNTS 9 8 0 0 0
M  V30 BEGIN ATOM
M  V30 1 O 0.0 0.0 0.0 0
M  V30 2 C 0.0 -1.4991 0.0 0
M  V30 3 O -1.2984 -2.2546 0.0 0
M  V30 4 C 1.2984 -2.2546 0.0 0
M  V30 5 C -2.5969 -1.5109 0.0 0
M  V30 6 C -3.8954 -2.2664 0.0 0
M  V30 7 C -5.1938 -1.5227 0.0 0
M  V30 8 C -5.1938 -0.0236 0.0 0
M  V30 9 C -6.4923 -2.2782 0.0 0
M  V30 END ATOM
M  V30 BEGIN BOND
M  V30 1 2 1 2
M  V30 2 1 2 3
M  V30 3 1 2 4
M  V30 4 1 3 5
M  V30 5 1 5 6
M  V30 6 1 6 7
M  V30 7 1 7 8
M  V30 8 1 7 9
M  V30 END BOND
M  V30 END CTAB
M  END
>  <Molecule Name>
Acetic acid, iso-amyl ester

>  <Activity Label>
0

>  <SMILES>
CC(C)CCOC(C)=O

>  <Molecular Formula>
C7H14O2

>  <InChIKey>
MLFHJEHSLIIPHL-UHFFFAOYSA-N

>  <Repellency>
Inactive

>  <Reference DOI>
10.3390/toxics11100837

>  <Target Organism>
Not applied

$$$$
Compound 97
Actelion Java MolfileCreator 2.0

  0  0  0  0  0  0              0 V3000
M  V30 BEGIN CTAB
M  V30 COUNTS 9 8 0 0 0
M  V30 BEGIN ATOM
M  V30 1 O 0.0 0.0 0.0 0
M  V30 2 C -1.2994 0.7442 0.0 0
M  V30 3 C -1.2994 2.2444 0.0 0 CFG=2
M  V30 4 C -2.5988 2.9886 0.0 0
M  V30 5 C 0.0 2.9886 0.0 0
M  V30 6 C -3.8982 2.2326 0.0 0
M  V30 7 C 1.2994 2.2326 0.0 0
M  V30 8 C -5.1976 2.9768 0.0 0
M  V30 9 C -6.497 2.2208 0.0 0
M  V30 END ATOM
M  V30 BEGIN BOND
M  V30 1 1 1 2
M  V30 2 1 3 2 CFG=3
M  V30 3 1 3 4
M  V30 4 1 3 5
M  V30 5 1 4 6
M  V30 6 1 5 7
M  V30 7 1 6 8
M  V30 8 1 8 9
M  V30 END BOND
M  V30 BEGIN COLLECTION
M  V30 MDLV30/STERAC1 ATOMS=(1 3)
M  V30 END COLLECTION
M  V30 END CTAB
M  END
>  <Molecule Name>
2-Ethylhexanol

>  <Activity Label>
0

>  <SMILES>
CCCCC(CC)CO

>  <Molecular Formula>
C8H18O

>  <InChIKey>
YIWUKEYIRIRTPP-UHFFFAOYSA-N

>  <Repellency>
Inactive

>  <Reference DOI>
10.3390/toxics11100837

>  <Target Organism>
Not applied

$$$$
Compound 98
Actelion Java MolfileCreator 2.0

  0  0  0  0  0  0              0 V3000
M  V30 BEGIN CTAB
M  V30 COUNTS 9 8 0 0 0
M  V30 BEGIN ATOM
M  V30 1 O 0.0 0.0 0.0 0
M  V30 2 C 0.0 -1.4994 0.0 0
M  V30 3 C -1.2987 -2.2551 0.0 0
M  V30 4 C 1.2987 -2.2551 0.0 0
M  V30 5 C -2.5975 -1.5112 0.0 0
M  V30 6 C 2.5975 -1.5112 0.0 0
M  V30 7 C -3.8963 -2.2669 0.0 0
M  V30 8 C -5.195 -1.5231 0.0 0
M  V30 9 C -6.4938 -2.2787 0.0 0
M  V30 END ATOM
M  V30 BEGIN BOND
M  V30 1 2 1 2
M  V30 2 1 2 3
M  V30 3 1 2 4
M  V30 4 2 3 5 CFG=2
M  V30 5 1 4 6
M  V30 6 1 5 7
M  V30 7 1 7 8
M  V30 8 1 8 9
M  V30 END BOND
M  V30 END CTAB
M  END
>  <Molecule Name>
Methyl heptenone

>  <Activity Label>
0

>  <SMILES>
CCCC=CC(CC)=O

>  <Molecular Formula>
C8H14O

>  <InChIKey>
JPTOCTSNXXKSSN-UHFFFAOYSA-N

>  <Repellency>
Inactive

>  <Reference DOI>
10.3390/toxics11100837

>  <Target Organism>
Not applied

$$$$
Compound 99
Actelion Java MolfileCreator 2.0

  0  0  0  0  0  0              0 V3000
M  V30 BEGIN CTAB
M  V30 COUNTS 9 8 0 0 0
M  V30 BEGIN ATOM
M  V30 1 O 0.0 0.0 0.0 0
M  V30 2 C 0.0 -1.4994 0.0 0
M  V30 3 C 1.2987 -2.2551 0.0 0
M  V30 4 C -1.2987 -2.2551 0.0 0
M  V30 5 C 2.5975 -1.5112 0.0 0
M  V30 6 C 3.8963 -2.2669 0.0 0
M  V30 7 C 5.195 -1.5231 0.0 0
M  V30 8 C 6.4938 -2.2787 0.0 0
M  V30 9 C 7.7926 -1.5349 0.0 0
M  V30 END ATOM
M  V30 BEGIN BOND
M  V30 1 2 1 2
M  V30 2 1 2 3
M  V30 3 1 2 4
M  V30 4 1 3 5
M  V30 5 1 5 6
M  V30 6 1 6 7
M  V30 7 1 7 8
M  V30 8 1 8 9
M  V30 END BOND
M  V30 END CTAB
M  END
>  <Molecule Name>
Methyl hexyl ketone

>  <Activity Label>
0

>  <SMILES>
CCCCCCC(C)=O

>  <Molecular Formula>
C8H16O

>  <InChIKey>
ZPVFWPFBNIEHGJ-UHFFFAOYSA-N

>  <Repellency>
Inactive

>  <Reference DOI>
10.3390/toxics11100837

>  <Target Organism>
Not applied

$$$$
Compound 100
Actelion Java MolfileCreator 2.0

  0  0  0  0  0  0              0 V3000
M  V30 BEGIN CTAB
M  V30 COUNTS 9 8 0 0 0
M  V30 BEGIN ATOM
M  V30 1 O 0.0 0.0 0.0 0
M  V30 2 C 0.0 1.5002 0.0 0
M  V30 3 O -1.2994 2.2444 0.0 0
M  V30 4 C 1.2994 2.2444 0.0 0
M  V30 5 C -2.5988 1.4884 0.0 0
M  V30 6 C 2.5988 1.4884 0.0 0
M  V30 7 C -3.8982 2.2326 0.0 0
M  V30 8 C 3.8982 2.2326 0.0 0
M  V30 9 O -5.1976 1.4766 0.0 0
M  V30 END ATOM
M  V30 BEGIN BOND
M  V30 1 2 1 2
M  V30 2 1 2 3
M  V30 3 1 2 4
M  V30 4 1 3 5
M  V30 5 1 4 6
M  V30 6 1 5 7
M  V30 7 1 6 8
M  V30 8 1 7 9
M  V30 END BOND
M  V30 END CTAB
M  END
>  <Molecule Name>
Butyric acid, beta-hydroxyethyl ester

>  <Activity Label>
0

>  <SMILES>
CCCC(OCCO)=O

>  <Molecular Formula>
C6H12O3

>  <InChIKey>
GIOCILWWMFZESP-UHFFFAOYSA-N

>  <Repellency>
Inactive

>  <Reference DOI>
10.3390/toxics11100837

>  <Target Organism>
Not applied

$$$$
Compound 101
Actelion Java MolfileCreator 2.0

  0  0  0  0  0  0              0 V3000
M  V30 BEGIN CTAB
M  V30 COUNTS 9 8 0 0 0
M  V30 BEGIN ATOM
M  V30 1 O 0.0 0.0 0.0 0
M  V30 2 C 0.0 1.4972 0.0 0
M  V30 3 O -1.2968 2.2518 0.0 0
M  V30 4 C 1.2968 2.2518 0.0 0
M  V30 5 C -2.5937 1.4972 0.0 0
M  V30 6 C -3.8905 2.2518 0.0 0
M  V30 7 O -5.1874 1.4972 0.0 0
M  V30 8 C -6.4842 2.2518 0.0 0
M  V30 9 C -7.7811 1.4972 0.0 0
M  V30 END ATOM
M  V30 BEGIN BOND
M  V30 1 2 1 2
M  V30 2 1 2 3
M  V30 3 1 2 4
M  V30 4 1 3 5
M  V30 5 1 5 6
M  V30 6 1 6 7
M  V30 7 1 7 8
M  V30 8 1 8 9
M  V30 END BOND
M  V30 END CTAB
M  END
>  <Molecule Name>
Acetic acid, beta-ethoxyethyl ester

>  <Activity Label>
0

>  <SMILES>
CCOCCOC(C)=O

>  <Molecular Formula>
C6H12O3

>  <InChIKey>
SVONRAPFKPVNKG-UHFFFAOYSA-N

>  <Repellency>
Inactive

>  <Reference DOI>
10.3390/toxics11100837

>  <Target Organism>
Not applied

$$$$
Compound 102
Actelion Java MolfileCreator 2.0

  0  0  0  0  0  0              0 V3000
M  V30 BEGIN CTAB
M  V30 COUNTS 9 8 0 0 0
M  V30 BEGIN ATOM
M  V30 1 O 0.0 0.0 0.0 0
M  V30 2 C 0.0 1.4998 0.0 0
M  V30 3 O -1.2991 2.2439 0.0 0
M  V30 4 C 1.2991 2.2439 0.0 0
M  V30 5 C -2.5982 1.488 0.0 0 CFG=2
M  V30 6 O 2.5982 1.488 0.0 0
M  V30 7 C -3.8973 2.2321 0.0 0
M  V30 8 C -2.5982 -0.0118 0.0 0
M  V30 9 C -5.1964 1.4762 0.0 0
M  V30 END ATOM
M  V30 BEGIN BOND
M  V30 1 2 1 2
M  V30 2 1 2 3
M  V30 3 1 2 4
M  V30 4 1 3 5
M  V30 5 1 4 6
M  V30 6 1 5 7
M  V30 7 1 5 8 CFG=1
M  V30 8 1 7 9
M  V30 END BOND
M  V30 BEGIN COLLECTION
M  V30 MDLV30/STERAC1 ATOMS=(1 5)
M  V30 END COLLECTION
M  V30 END CTAB
M  END
>  <Molecule Name>
Glycolic acid, sec-butyl ester

>  <Activity Label>
0

>  <SMILES>
CCC(C)OC(CO)=O

>  <Molecular Formula>
C6H12O3

>  <InChIKey>
BIGVSMRJOBZZNM-UHFFFAOYSA-N

>  <Repellency>
Inactive

>  <Reference DOI>
10.3390/toxics11100837

>  <Target Organism>
Not applied

$$$$
Compound 103
Actelion Java MolfileCreator 2.0

  0  0  0  0  0  0              0 V3000
M  V30 BEGIN CTAB
M  V30 COUNTS 9 8 0 0 0
M  V30 BEGIN ATOM
M  V30 1 O 0.0 0.0 0.0 0
M  V30 2 C 0.0 -1.4994 0.0 0
M  V30 3 O -1.2987 -2.2551 0.0 0
M  V30 4 C 1.2987 -2.2551 0.0 0
M  V30 5 C -2.5975 -1.5112 0.0 0
M  V30 6 O 2.5975 -1.5112 0.0 0
M  V30 7 C -3.8963 -2.2669 0.0 0
M  V30 8 C -5.195 -1.5231 0.0 0
M  V30 9 C -6.4938 -2.2787 0.0 0
M  V30 END ATOM
M  V30 BEGIN BOND
M  V30 1 2 1 2
M  V30 2 1 2 3
M  V30 3 1 2 4
M  V30 4 1 3 5
M  V30 5 1 4 6
M  V30 6 1 5 7
M  V30 7 1 7 8
M  V30 8 1 8 9
M  V30 END BOND
M  V30 END CTAB
M  END
>  <Molecule Name>
Glycolic acid, butyl ester

>  <Activity Label>
0

>  <SMILES>
CCCCOC(CO)=O

>  <Molecular Formula>
C6H12O3

>  <InChIKey>
VFGRALUHHHDIQI-UHFFFAOYSA-N

>  <Repellency>
Inactive

>  <Reference DOI>
10.3390/toxics11100837

>  <Target Organism>
Not applied

$$$$
Compound 104
Actelion Java MolfileCreator 2.0

  0  0  0  0  0  0              0 V3000
M  V30 BEGIN CTAB
M  V30 COUNTS 9 8 0 0 0
M  V30 BEGIN ATOM
M  V30 1 O 0.0 0.0 0.0 0
M  V30 2 C 0.0 1.4998 0.0 0
M  V30 3 O -1.2991 2.2439 0.0 0
M  V30 4 C 1.2991 2.2439 0.0 0
M  V30 5 C -2.5982 1.488 0.0 0
M  V30 6 O 2.5982 1.488 0.0 0
M  V30 7 C -3.8973 2.2321 0.0 0
M  V30 8 C -3.8973 3.7319 0.0 0
M  V30 9 C -5.1964 1.4762 0.0 0
M  V30 END ATOM
M  V30 BEGIN BOND
M  V30 1 2 1 2
M  V30 2 1 2 3
M  V30 3 1 2 4
M  V30 4 1 3 5
M  V30 5 1 4 6
M  V30 6 1 5 7
M  V30 7 1 7 8
M  V30 8 1 7 9
M  V30 END BOND
M  V30 END CTAB
M  END
>  <Molecule Name>
Glycolic acid, iso-butyl ester

>  <Activity Label>
0

>  <SMILES>
CC(C)COC(CO)=O

>  <Molecular Formula>
C6H12O3

>  <InChIKey>
DYVMQTLQAZMTNK-UHFFFAOYSA-N

>  <Repellency>
Inactive

>  <Reference DOI>
10.3390/toxics11100837

>  <Target Organism>
Not applied

$$$$
Compound 105
Actelion Java MolfileCreator 2.0

  0  0  0  0  0  0              0 V3000
M  V30 BEGIN CTAB
M  V30 COUNTS 9 8 0 0 0
M  V30 BEGIN ATOM
M  V30 1 O 0.0 0.0 0.0 0
M  V30 2 C 0.0 -1.4995 0.0 0
M  V30 3 O -1.2988 -2.2552 0.0 0
M  V30 4 C 1.2988 -2.2552 0.0 0 CFG=1
M  V30 5 C -2.5976 -1.5113 0.0 0
M  V30 6 O 2.5976 -1.5113 0.0 0
M  V30 7 C 1.2988 -3.7547 0.0 0
M  V30 8 C -2.5976 -0.0118 0.0 0
M  V30 9 C -3.8964 -2.267 0.0 0
M  V30 END ATOM
M  V30 BEGIN BOND
M  V30 1 2 1 2
M  V30 2 1 2 3
M  V30 3 1 2 4
M  V30 4 1 3 5
M  V30 5 1 4 6 CFG=1
M  V30 6 1 4 7
M  V30 7 1 5 8
M  V30 8 1 5 9
M  V30 END BOND
M  V30 BEGIN COLLECTION
M  V30 MDLV30/STERAC1 ATOMS=(1 4)
M  V30 END COLLECTION
M  V30 END CTAB
M  END
>  <Molecule Name>
Lactic acid, iso-propyl ester

>  <Activity Label>
0

>  <SMILES>
CC(C)OC(C(C)O)=O

>  <Molecular Formula>
C6H12O3

>  <InChIKey>
KIWATKANDHUUOB-UHFFFAOYSA-N

>  <Repellency>
Inactive

>  <Reference DOI>
10.3390/toxics11100837

>  <Target Organism>
Not applied

$$$$
Compound 106
Actelion Java MolfileCreator 2.0

  0  0  0  0  0  0              0 V3000
M  V30 BEGIN CTAB
M  V30 COUNTS 9 8 0 0 0
M  V30 BEGIN ATOM
M  V30 1 O 0.0 0.0 0.0 0
M  V30 2 C 0.0 -1.4991 0.0 0
M  V30 3 O -1.2984 -2.2546 0.0 0
M  V30 4 C 1.2984 -2.2546 0.0 0
M  V30 5 C -2.5969 -1.5109 0.0 0
M  V30 6 C 2.5969 -1.5109 0.0 0
M  V30 7 C -3.8954 -2.2664 0.0 0
M  V30 8 O 3.8954 -2.2664 0.0 0
M  V30 9 C 2.5969 -0.0118 0.0 0
M  V30 END ATOM
M  V30 BEGIN BOND
M  V30 1 2 1 2
M  V30 2 1 2 3
M  V30 3 1 2 4
M  V30 4 1 3 5
M  V30 5 1 4 6
M  V30 6 1 5 7
M  V30 7 2 6 8
M  V30 8 1 6 9
M  V30 END BOND
M  V30 END CTAB
M  END
>  <Molecule Name>
Acetoacetic acid, ethyl ester

>  <Activity Label>
0

>  <SMILES>
CCOC(CC(C)=O)=O

>  <Molecular Formula>
C6H10O3

>  <InChIKey>
XYIBRDXRRQCHLP-UHFFFAOYSA-N

>  <Repellency>
Inactive

>  <Reference DOI>
10.3390/toxics11100837

>  <Target Organism>
Not applied

$$$$
Compound 107
Actelion Java MolfileCreator 2.0

  0  0  0  0  0  0              0 V3000
M  V30 BEGIN CTAB
M  V30 COUNTS 9 8 0 0 0
M  V30 BEGIN ATOM
M  V30 1 O 0.0 0.0 0.0 0
M  V30 2 C 0.0 -1.4994 0.0 0
M  V30 3 O -1.2987 -2.2551 0.0 0
M  V30 4 C 1.2987 -2.2551 0.0 0
M  V30 5 C -2.5975 -1.5112 0.0 0
M  V30 6 C 2.5975 -1.5112 0.0 0
M  V30 7 C -3.8963 -2.2669 0.0 0
M  V30 8 O 3.8963 -2.2669 0.0 0
M  V30 9 C 5.195 -1.5231 0.0 0
M  V30 END ATOM
M  V30 BEGIN BOND
M  V30 1 2 1 2
M  V30 2 1 2 3
M  V30 3 1 2 4
M  V30 4 1 3 5
M  V30 5 1 4 6
M  V30 6 1 5 7
M  V30 7 1 6 8
M  V30 8 1 8 9
M  V30 END BOND
M  V30 END CTAB
M  END
>  <Molecule Name>
beta-Methoxypropionic acid, ethyl ester

>  <Activity Label>
0

>  <SMILES>
CCOC(CCOC)=O

>  <Molecular Formula>
C6H12O3

>  <InChIKey>
IJUHLFUALMUWOM-UHFFFAOYSA-N

>  <Repellency>
Inactive

>  <Reference DOI>
10.3390/toxics11100837

>  <Target Organism>
Not applied

$$$$
Compound 108
Actelion Java MolfileCreator 2.0

  0  0  0  0  0  0              0 V3000
M  V30 BEGIN CTAB
M  V30 COUNTS 9 8 0 0 0
M  V30 BEGIN ATOM
M  V30 1 O 0.0 0.0 0.0 0
M  V30 2 C 0.0 1.4998 0.0 0
M  V30 3 O -1.2991 2.2439 0.0 0
M  V30 4 C 1.2991 2.2439 0.0 0
M  V30 5 C -2.5982 1.488 0.0 0
M  V30 6 C 2.5982 1.488 0.0 0
M  V30 7 C 3.8973 2.2321 0.0 0
M  V30 8 O 5.1964 1.4762 0.0 0
M  V30 9 C 3.8973 3.7319 0.0 0
M  V30 END ATOM
M  V30 BEGIN BOND
M  V30 1 2 1 2
M  V30 2 1 2 3
M  V30 3 1 2 4
M  V30 4 1 3 5
M  V30 5 1 4 6
M  V30 6 1 6 7
M  V30 7 2 7 8
M  V30 8 1 7 9
M  V30 END BOND
M  V30 END CTAB
M  END
>  <Molecule Name>
Levulinic acid, methyl ester

>  <Activity Label>
0

>  <SMILES>
CC(CCC(OC)=O)=O

>  <Molecular Formula>
C6H10O3

>  <InChIKey>
UAGJVSRUFNSIHR-UHFFFAOYSA-N

>  <Repellency>
Inactive

>  <Reference DOI>
10.3390/toxics11100837

>  <Target Organism>
Not applied

$$$$
Compound 109
Actelion Java MolfileCreator 2.0

  0  0  0  0  0  0              0 V3000
M  V30 BEGIN CTAB
M  V30 COUNTS 9 8 0 0 0
M  V30 BEGIN ATOM
M  V30 1 N 0.0 0.0 0.0 0
M  V30 2 C -1.2987 -0.7556 0.0 0
M  V30 3 C -2.5975 -1.5112 0.0 0
M  V30 4 C -3.8963 -0.7674 0.0 0
M  V30 5 N -3.8963 0.732 0.0 0
M  V30 6 C -2.5975 1.4758 0.0 0
M  V30 7 C -5.195 1.4758 0.0 0
M  V30 8 C -1.2987 0.7202 0.0 0
M  V30 9 C -6.4938 0.7202 0.0 0
M  V30 END ATOM
M  V30 BEGIN BOND
M  V30 1 3 1 2
M  V30 2 1 2 3
M  V30 3 1 3 4
M  V30 4 1 4 5
M  V30 5 1 5 6
M  V30 6 1 5 7
M  V30 7 1 6 8
M  V30 8 1 7 9
M  V30 END BOND
M  V30 END CTAB
M  END
>  <Molecule Name>
beta-Diethylaminopropionitrile

>  <Activity Label>
0

>  <SMILES>
CCN(CC)CCC#N

>  <Molecular Formula>
C7H14N2

>  <InChIKey>
LFFKXGFSDGRFQA-UHFFFAOYSA-N

>  <Repellency>
Inactive

>  <Reference DOI>
10.3390/toxics11100837

>  <Target Organism>
Not applied

$$$$
Compound 110
Actelion Java MolfileCreator 2.0

  0  0  0  0  0  0              0 V3000
M  V30 BEGIN CTAB
M  V30 COUNTS 9 8 0 0 0
M  V30 BEGIN ATOM
M  V30 1 N 0.0 0.0 0.0 0
M  V30 2 C -1.2981 -0.7552 0.0 0
M  V30 3 C -2.5962 -1.5105 0.0 0
M  V30 4 C -2.5962 -3.0093 0.0 0
M  V30 5 C -3.8944 -0.767 0.0 0
M  V30 6 C -1.2981 -3.7645 0.0 0
M  V30 7 C -3.8944 -3.7645 0.0 0
M  V30 8 C 0.0 -3.0211 0.0 0
M  V30 9 C 1.2981 -3.7763 0.0 0
M  V30 END ATOM
M  V30 BEGIN BOND
M  V30 1 3 1 2
M  V30 2 1 2 3
M  V30 3 2 3 4 CFG=2
M  V30 4 1 3 5
M  V30 5 1 4 6
M  V30 6 1 4 7
M  V30 7 1 6 8
M  V30 8 1 8 9
M  V30 END BOND
M  V30 END CTAB
M  END
>  <Molecule Name>
2,3-Dimethyl-2-hexenenitrile

>  <Activity Label>
0

>  <SMILES>
CCCC(C)=C(C)C#N

>  <Molecular Formula>
C8H13N

>  <InChIKey>
SICIJSJBDJJXPE-UHFFFAOYSA-N

>  <Repellency>
Inactive

>  <Reference DOI>
10.3390/toxics11100837

>  <Target Organism>
Not applied

$$$$
Compound 111
Actelion Java MolfileCreator 2.0

  0  0  0  0  0  0              0 V3000
M  V30 BEGIN CTAB
M  V30 COUNTS 9 8 0 0 0
M  V30 BEGIN ATOM
M  V30 1 O 0.0 0.0 0.0 0
M  V30 2 C -1.2987 0.7438 0.0 0
M  V30 3 O -2.5975 -0.0118 0.0 0
M  V30 4 C -1.2987 2.2433 0.0 0 CFG=1
M  V30 5 C -3.8963 0.732 0.0 0
M  V30 6 C 0.0 2.9989 0.0 0
M  V30 7 C -2.5975 2.9871 0.0 0
M  V30 8 C -5.195 -0.0236 0.0 0
M  V30 9 N 1.2987 3.7546 0.0 0
M  V30 END ATOM
M  V30 BEGIN BOND
M  V30 1 2 1 2
M  V30 2 1 2 3
M  V30 3 1 2 4
M  V30 4 1 3 5
M  V30 5 1 4 6
M  V30 6 1 4 7 CFG=3
M  V30 7 1 5 8
M  V30 8 3 6 9
M  V30 END BOND
M  V30 BEGIN COLLECTION
M  V30 MDLV30/STERAC1 ATOMS=(1 4)
M  V30 END COLLECTION
M  V30 END CTAB
M  END
>  <Molecule Name>
Methylcyanoacetic acid, ethyl ester

>  <Activity Label>
0

>  <SMILES>
CCOC(C(C)C#N)=O

>  <Molecular Formula>
C6H9NO2

>  <InChIKey>
MIHRVXYXORIINI-UHFFFAOYSA-N

>  <Repellency>
Inactive

>  <Reference DOI>
10.3390/toxics11100837

>  <Target Organism>
Not applied

$$$$
Compound 112
Actelion Java MolfileCreator 2.0

  0  0  0  0  0  0              0 V3000
M  V30 BEGIN CTAB
M  V30 COUNTS 9 8 0 0 0
M  V30 BEGIN ATOM
M  V30 1 O 0.0 0.0 0.0 0
M  V30 2 C -1.2991 0.744 0.0 0
M  V30 3 C 1.2991 0.744 0.0 0
M  V30 4 C -2.5982 -0.0118 0.0 0
M  V30 5 C 2.5982 -0.0118 0.0 0
M  V30 6 C -2.5982 -1.5116 0.0 0
M  V30 7 C 3.8973 0.7322 0.0 0
M  V30 8 N -2.5982 -3.0115 0.0 0
M  V30 9 C 5.1964 -0.0236 0.0 0
M  V30 END ATOM
M  V30 BEGIN BOND
M  V30 1 1 1 2
M  V30 2 1 1 3
M  V30 3 1 2 4
M  V30 4 1 3 5
M  V30 5 1 4 6
M  V30 6 1 5 7
M  V30 7 3 6 8
M  V30 8 1 7 9
M  V30 END BOND
M  V30 END CTAB
M  END
>  <Molecule Name>
3-Butoxypropionitrile

>  <Activity Label>
0

>  <SMILES>
CCCCOCCC#N

>  <Molecular Formula>
C7H13NO

>  <InChIKey>
AWVNJBFNHGQUQU-UHFFFAOYSA-N

>  <Repellency>
Inactive

>  <Reference DOI>
10.3390/toxics11100837

>  <Target Organism>
Not applied

$$$$
Compound 113
Actelion Java MolfileCreator 2.0

  0  0  0  0  0  0              0 V3000
M  V30 BEGIN CTAB
M  V30 COUNTS 9 8 0 0 0
M  V30 BEGIN ATOM
M  V30 1 O 0.0 0.0 0.0 0
M  V30 2 C 0.0 -1.4995 0.0 0
M  V30 3 N -1.2988 -2.2552 0.0 0
M  V30 4 C 1.2988 -2.2552 0.0 0 CFG=1
M  V30 5 O 2.5976 -1.5113 0.0 0
M  V30 6 C 1.2988 -3.7547 0.0 0
M  V30 7 C 3.8964 -2.267 0.0 0
M  V30 8 O 3.8964 -3.7665 0.0 0
M  V30 9 C 5.1952 -1.5231 0.0 0
M  V30 END ATOM
M  V30 BEGIN BOND
M  V30 1 2 1 2
M  V30 2 1 2 3
M  V30 3 1 2 4
M  V30 4 1 4 5
M  V30 5 1 4 6 CFG=1
M  V30 6 1 5 7
M  V30 7 2 7 8
M  V30 8 1 7 9
M  V30 END BOND
M  V30 BEGIN COLLECTION
M  V30 MDLV30/STERAC1 ATOMS=(1 4)
M  V30 END COLLECTION
M  V30 END CTAB
M  END
>  <Molecule Name>
alpha-Acetoxypropionamide

>  <Activity Label>
0

>  <SMILES>
CC(C(N)=O)OC(C)=O

>  <Molecular Formula>
C5H9NO3

>  <InChIKey>
GTRYKHGXRVCFOV-UHFFFAOYSA-N

>  <Repellency>
Inactive

>  <Reference DOI>
10.3390/toxics11100837

>  <Target Organism>
Not applied

$$$$
Compound 114
Actelion Java MolfileCreator 2.0

  0  0  0  0  0  0              0 V3000
M  V30 BEGIN CTAB
M  V30 COUNTS 9 8 0 0 0
M  V30 BEGIN ATOM
M  V30 1 O 0.0 0.0 0.0 0
M  V30 2 C 0.0 1.4998 0.0 0
M  V30 3 N -1.2991 2.2439 0.0 0
M  V30 4 C 1.2991 2.2439 0.0 0 CFG=1
M  V30 5 C -2.5982 1.488 0.0 0
M  V30 6 O 2.5982 1.488 0.0 0
M  V30 7 C 1.2991 3.7437 0.0 0
M  V30 8 C -3.8973 2.2321 0.0 0
M  V30 9 O -5.1964 1.4762 0.0 0
M  V30 END ATOM
M  V30 BEGIN BOND
M  V30 1 2 1 2
M  V30 2 1 2 3
M  V30 3 1 2 4
M  V30 4 1 3 5
M  V30 5 1 4 6 CFG=3
M  V30 6 1 4 7
M  V30 7 1 5 8
M  V30 8 1 8 9
M  V30 END BOND
M  V30 BEGIN COLLECTION
M  V30 MDLV30/STERAC1 ATOMS=(1 4)
M  V30 END COLLECTION
M  V30 END CTAB
M  END
>  <Molecule Name>
N-Hydroxyethyl lactamide

>  <Activity Label>
0

>  <SMILES>
CC(C(NCCO)=O)O

>  <Molecular Formula>
C5H11NO3

>  <InChIKey>
RZCHTMXTKQHYDT-UHFFFAOYSA-N

>  <Repellency>
Inactive

>  <Reference DOI>
10.3390/toxics11100837

>  <Target Organism>
Not applied

$$$$
Compound 115
Actelion Java MolfileCreator 2.0

  0  0  0  0  0  0              0 V3000
M  V30 BEGIN CTAB
M  V30 COUNTS 9 10 0 0 0
M  V30 BEGIN ATOM
M  V30 1 C 0.0 0.0 0.0 0
M  V30 2 C 0.8848 -1.2152 0.0 0
M  V30 3 C 0.6135 1.3685 0.0 0
M  V30 4 C -1.4275 -0.4601 0.0 0
M  V30 5 C 2.3714 -1.0618 0.0 0
M  V30 6 C 0.0 -2.4304 0.0 0
M  V30 7 C 2.1 1.5219 0.0 0
M  V30 8 C -1.4275 -1.9584 0.0 0
M  V30 9 C 2.9849 0.3067 0.0 0
M  V30 END ATOM
M  V30 BEGIN BOND
M  V30 1 2 1 2
M  V30 2 1 1 3
M  V30 3 1 1 4
M  V30 4 1 2 5
M  V30 5 1 2 6
M  V30 6 2 3 7
M  V30 7 1 4 8
M  V30 8 2 5 9
M  V30 9 1 6 8
M  V30 10 1 7 9
M  V30 END BOND
M  V30 END CTAB
M  END
>  <Molecule Name>
Indan

>  <Activity Label>
0

>  <SMILES>
C(C1)Cc2c1cccc2

>  <Molecular Formula>
C9H10

>  <InChIKey>
PQNFLJBBNBOBRQ-UHFFFAOYSA-N

>  <Repellency>
Inactive

>  <Reference DOI>
10.3390/toxics11100837

>  <Target Organism>
Not applied

$$$$
Compound 116
Actelion Java MolfileCreator 2.0

  0  0  0  0  0  0              0 V3000
M  V30 BEGIN CTAB
M  V30 COUNTS 9 10 0 0 0
M  V30 BEGIN ATOM
M  V30 1 O 0.0 0.0 0.0 0
M  V30 2 C 1.4288 0.4605 0.0 0
M  V30 3 C 0.0 -1.4996 0.0 0
M  V30 4 C 2.3144 -0.7557 0.0 0
M  V30 5 C 2.0428 1.8303 0.0 0
M  V30 6 N 1.4288 -1.9602 0.0 0
M  V30 7 C 3.8023 -0.6022 0.0 0
M  V30 8 C 3.5307 1.9838 0.0 0
M  V30 9 C 4.4163 0.7675 0.0 0
M  V30 END ATOM
M  V30 BEGIN BOND
M  V30 1 1 1 2
M  V30 2 1 1 3
M  V30 3 2 2 4
M  V30 4 1 2 5
M  V30 5 2 3 6
M  V30 6 1 4 7
M  V30 7 2 5 8
M  V30 8 2 7 9
M  V30 9 1 4 6
M  V30 10 1 8 9
M  V30 END BOND
M  V30 END CTAB
M  END
>  <Molecule Name>
Benzoxazole

>  <Activity Label>
0

>  <SMILES>
c1nc(cccc2)c2[o]1

>  <Molecular Formula>
C7H5NO

>  <InChIKey>
BCMCBBGGLRIHSE-UHFFFAOYSA-N

>  <Repellency>
Inactive

>  <Reference DOI>
10.3390/toxics11100837

>  <Target Organism>
Not applied

$$$$
Compound 117
Actelion Java MolfileCreator 2.0

  0  0  0  0  0  0              0 V3000
M  V30 BEGIN CTAB
M  V30 COUNTS 9 9 0 0 0
M  V30 BEGIN ATOM
M  V30 1 Cl 0.0 0.0 0.0 0
M  V30 2 C -1.2976 -0.755 0.0 0
M  V30 3 C -1.2976 -2.2532 0.0 0
M  V30 4 C -2.5953 0.0 0.0 0
M  V30 5 Cl 0.0 -3.0082 0.0 0
M  V30 6 C -2.5953 -2.9964 0.0 0
M  V30 7 C -3.893 -0.7432 0.0 0
M  V30 8 C -3.893 -2.2532 0.0 0
M  V30 9 C -5.1907 0.0117 0.0 0
M  V30 END ATOM
M  V30 BEGIN BOND
M  V30 1 1 1 2
M  V30 2 2 2 3
M  V30 3 1 2 4
M  V30 4 1 3 5
M  V30 5 1 3 6
M  V30 6 2 4 7
M  V30 7 2 6 8
M  V30 8 1 7 9
M  V30 9 1 7 8
M  V30 END BOND
M  V30 END CTAB
M  END
>  <Molecule Name>
3,4-Dichloro toluene

>  <Activity Label>
0

>  <SMILES>
Cc(cc1)cc(Cl)c1Cl

>  <Molecular Formula>
C7H6Cl2

>  <InChIKey>
WYUIWKFIFOJVKW-UHFFFAOYSA-N

>  <Repellency>
Inactive

>  <Reference DOI>
10.3390/toxics11100837

>  <Target Organism>
Not applied

$$$$
Compound 118
Actelion Java MolfileCreator 2.0

  0  0  0  0  0  0              0 V3000
M  V30 BEGIN CTAB
M  V30 COUNTS 9 9 0 0 0
M  V30 BEGIN ATOM
M  V30 1 Br 0.0 0.0 0.0 0
M  V30 2 C -1.2993 -0.7441 0.0 0
M  V30 3 C -2.5987 0.0118 0.0 0
M  V30 4 C -1.2993 -2.2443 0.0 0
M  V30 5 C -3.8981 -0.7323 0.0 0
M  V30 6 C -2.5987 -2.9885 0.0 0
M  V30 7 C -3.8981 -2.2325 0.0 0
M  V30 8 C -5.1975 0.0236 0.0 0
M  V30 9 C -5.1975 -2.9767 0.0 0
M  V30 END ATOM
M  V30 BEGIN BOND
M  V30 1 1 1 2
M  V30 2 2 2 3
M  V30 3 1 2 4
M  V30 4 1 3 5
M  V30 5 2 4 6
M  V30 6 2 5 7
M  V30 7 1 5 8
M  V30 8 1 7 9
M  V30 9 1 6 7
M  V30 END BOND
M  V30 END CTAB
M  END
>  <Molecule Name>
4-Bromo-o-xylene

>  <Activity Label>
0

>  <SMILES>
Cc(cc1)c(C)cc1Br

>  <Molecular Formula>
C8H9Br

>  <InChIKey>
QOGHRLGTXVMRLM-UHFFFAOYSA-N

>  <Repellency>
Inactive

>  <Reference DOI>
10.3390/toxics11100837

>  <Target Organism>
Not applied

$$$$
Compound 119
Actelion Java MolfileCreator 2.0

  0  0  0  0  0  0              0 V3000
M  V30 BEGIN CTAB
M  V30 COUNTS 9 9 0 0 0
M  V30 BEGIN ATOM
M  V30 1 O 0.0 0.0 0.0 0
M  V30 2 C -0.7443 1.2996 0.0 0
M  V30 3 C -1.5005 0.0 0.0 0 CFG=2
M  V30 4 C 0.0118 2.5993 0.0 0
M  V30 5 C -1.4886 2.5993 0.0 0
M  V30 6 C -2.8001 -0.7561 0.0 0
M  V30 7 O -4.0998 -1.5005 0.0 0
M  V30 8 C -2.0558 -2.0558 0.0 0
M  V30 9 C -3.5445 0.5434 0.0 0
M  V30 END ATOM
M  V30 BEGIN BOND
M  V30 1 1 1 2
M  V30 2 1 1 3
M  V30 3 1 2 4
M  V30 4 1 2 5
M  V30 5 1 3 6 CFG=1
M  V30 6 1 6 7
M  V30 7 1 6 8
M  V30 8 1 6 9
M  V30 9 1 2 3
M  V30 END BOND
M  V30 BEGIN COLLECTION
M  V30 MDLV30/STERAC1 ATOMS=(1 3)
M  V30 END COLLECTION
M  V30 END CTAB
M  END
>  <Molecule Name>
2,4-Dimethyl-2,3-epoxy-4-pentanol

>  <Activity Label>
0

>  <SMILES>
CC(C)(C1OC1(C)C)O

>  <Molecular Formula>
C7H14O2

>  <InChIKey>
WGCFOFRTAREJNT-UHFFFAOYSA-N

>  <Repellency>
Inactive

>  <Reference DOI>
10.3390/toxics11100837

>  <Target Organism>
Not applied

$$$$
Compound 120
Actelion Java MolfileCreator 2.0

  0  0  0  0  0  0              0 V3000
M  V30 BEGIN CTAB
M  V30 COUNTS 9 9 0 0 0
M  V30 BEGIN ATOM
M  V30 1 O 0.0 0.0 0.0 0
M  V30 2 C 1.2993 0.7441 0.0 0
M  V30 3 C 2.5987 -0.0118 0.0 0
M  V30 4 C 2.5987 -1.512 0.0 0
M  V30 5 C 3.8981 0.7323 0.0 0
M  V30 6 O 1.2993 -2.2562 0.0 0
M  V30 7 C 3.8981 -2.268 0.0 0
M  V30 8 C 5.1975 -0.0236 0.0 0
M  V30 9 C 5.1975 -1.5238 0.0 0
M  V30 END ATOM
M  V30 BEGIN BOND
M  V30 1 2 1 2
M  V30 2 1 2 3
M  V30 3 2 3 4
M  V30 4 1 3 5
M  V30 5 1 4 6
M  V30 6 1 4 7
M  V30 7 2 5 8
M  V30 8 2 7 9
M  V30 9 1 8 9
M  V30 END BOND
M  V30 END CTAB
M  END
>  <Molecule Name>
Salicylaldehyde

>  <Activity Label>
0

>  <SMILES>
Oc1c(C=O)cccc1

>  <Molecular Formula>
C7H6O2

>  <InChIKey>
SMQUZDBALVYZAC-UHFFFAOYSA-N

>  <Repellency>
Inactive

>  <Reference DOI>
10.3390/toxics11100837

>  <Target Organism>
Not applied

$$$$
Compound 121
Actelion Java MolfileCreator 2.0

  0  0  0  0  0  0              0 V3000
M  V30 BEGIN CTAB
M  V30 COUNTS 9 9 0 0 0
M  V30 BEGIN ATOM
M  V30 1 O 0.0 0.0 0.0 0
M  V30 2 C 1.2999 -0.7563 0.0 0
M  V30 3 C -1.2999 -0.7445 0.0 0
M  V30 4 O 1.2999 -2.2571 0.0 0
M  V30 5 C 2.5999 -0.0118 0.0 0
M  V30 6 C -1.2999 -2.2453 0.0 0
M  V30 7 C 0.0 -3.0017 0.0 0
M  V30 8 C 3.8998 -0.7563 0.0 0
M  V30 9 C 5.1998 -0.0118 0.0 0
M  V30 END ATOM
M  V30 BEGIN BOND
M  V30 1 1 1 2
M  V30 2 1 1 3
M  V30 3 1 2 4
M  V30 4 1 2 5
M  V30 5 1 3 6
M  V30 6 1 4 7
M  V30 7 1 5 8
M  V30 8 1 8 9
M  V30 9 1 6 7
M  V30 END BOND
M  V30 END CTAB
M  END
>  <Molecule Name>
2-Propyl-m-dioxane

>  <Activity Label>
0

>  <SMILES>
CCCC1OCCCO1

>  <Molecular Formula>
C7H14O2

>  <InChIKey>
TXLICGCGWAEPIB-UHFFFAOYSA-N

>  <Repellency>
Inactive

>  <Reference DOI>
10.3390/toxics11100837

>  <Target Organism>
Not applied

$$$$
Compound 122
Actelion Java MolfileCreator 2.0

  0  0  0  0  0  0              0 V3000
M  V30 BEGIN CTAB
M  V30 COUNTS 9 9 0 0 0
M  V30 BEGIN ATOM
M  V30 1 O 0.0 0.0 0.0 0
M  V30 2 C -1.2993 -0.7441 0.0 0
M  V30 3 C 1.2993 -0.7441 0.0 0
M  V30 4 C -2.5987 0.0118 0.0 0
M  V30 5 C -1.2993 -2.2443 0.0 0
M  V30 6 C -3.8981 -0.7323 0.0 0
M  V30 7 C -2.5987 -2.9885 0.0 0
M  V30 8 O -5.1975 0.0236 0.0 0
M  V30 9 C -3.8981 -2.2325 0.0 0
M  V30 END ATOM
M  V30 BEGIN BOND
M  V30 1 1 1 2
M  V30 2 1 1 3
M  V30 3 1 2 4
M  V30 4 1 2 5
M  V30 5 1 4 6
M  V30 6 1 5 7
M  V30 7 1 6 8
M  V30 8 1 6 9
M  V30 9 1 7 9
M  V30 END BOND
M  V30 END CTAB
M  END
>  <Molecule Name>
m-Methoxycyclohexanol

>  <Activity Label>
0

>  <SMILES>
COC(CCC1)CC1O

>  <Molecular Formula>
C7H14O2

>  <InChIKey>
ANRGBAYCAUTVKN-UHFFFAOYSA-N

>  <Repellency>
Inactive

>  <Reference DOI>
10.3390/toxics11100837

>  <Target Organism>
Not applied

$$$$
Compound 123
Actelion Java MolfileCreator 2.0

  0  0  0  0  0  0              0 V3000
M  V30 BEGIN CTAB
M  V30 COUNTS 9 9 0 0 0
M  V30 BEGIN ATOM
M  V30 1 O 0.0 0.0 0.0 0
M  V30 2 C 1.2982 0.7553 0.0 0
M  V30 3 C 2.5965 0.0 0.0 0
M  V30 4 C 3.8947 0.7553 0.0 0
M  V30 5 C 5.193 0.0118 0.0 0
M  V30 6 C 3.8947 2.2542 0.0 0
M  V30 7 C 6.4912 0.7671 0.0 0
M  V30 8 C 5.193 3.0095 0.0 0
M  V30 9 C 6.4912 2.266 0.0 0
M  V30 END ATOM
M  V30 BEGIN BOND
M  V30 1 2 1 2
M  V30 2 1 2 3
M  V30 3 1 3 4
M  V30 4 2 4 5
M  V30 5 1 4 6
M  V30 6 1 5 7
M  V30 7 2 6 8
M  V30 8 2 7 9
M  V30 9 1 8 9
M  V30 END BOND
M  V30 END CTAB
M  END
>  <Molecule Name>
Phenylacetaldehyde

>  <Activity Label>
0

>  <SMILES>
O=CCc1ccccc1

>  <Molecular Formula>
C8H8O

>  <InChIKey>
DTUQWGWMVIHBKE-UHFFFAOYSA-N

>  <Repellency>
Inactive

>  <Reference DOI>
10.3390/toxics11100837

>  <Target Organism>
Not applied

$$$$
Compound 124
Actelion Java MolfileCreator 2.0

  0  0  0  0  0  0              0 V3000
M  V30 BEGIN CTAB
M  V30 COUNTS 9 9 0 0 0
M  V30 BEGIN ATOM
M  V30 1 O 0.0 0.0 0.0 0
M  V30 2 C 1.2993 0.7441 0.0 0
M  V30 3 C 2.5987 -0.0118 0.0 0
M  V30 4 C 3.8981 0.7323 0.0 0
M  V30 5 C 2.5987 -1.512 0.0 0
M  V30 6 C 5.1975 -0.0236 0.0 0
M  V30 7 C 3.8981 -2.268 0.0 0
M  V30 8 C 5.1975 -1.5238 0.0 0
M  V30 9 C 6.4969 0.7205 0.0 0
M  V30 END ATOM
M  V30 BEGIN BOND
M  V30 1 2 1 2
M  V30 2 1 2 3
M  V30 3 2 3 4
M  V30 4 1 3 5
M  V30 5 1 4 6
M  V30 6 2 5 7
M  V30 7 2 6 8
M  V30 8 1 6 9
M  V30 9 1 7 8
M  V30 END BOND
M  V30 END CTAB
M  END
>  <Molecule Name>
m-Tolualdehyde

>  <Activity Label>
0

>  <SMILES>
Cc1cccc(C=O)c1

>  <Molecular Formula>
C8H8O

>  <InChIKey>
OVWYEQOVUDKZNU-UHFFFAOYSA-N

>  <Repellency>
Inactive

>  <Reference DOI>
10.3390/toxics11100837

>  <Target Organism>
Not applied

$$$$
Compound 125
Actelion Java MolfileCreator 2.0

  0  0  0  0  0  0              0 V3000
M  V30 BEGIN CTAB
M  V30 COUNTS 9 9 0 0 0
M  V30 BEGIN ATOM
M  V30 1 O 0.0 0.0 0.0 0
M  V30 2 C 1.2994 0.7442 0.0 0
M  V30 3 C 1.2994 -0.756 0.0 0
M  V30 4 C 2.5988 1.4884 0.0 0
M  V30 5 C 0.0 1.4884 0.0 0
M  V30 6 C 1.2994 -2.2562 0.0 0
M  V30 7 C 2.5988 2.9886 0.0 0
M  V30 8 C 0.0 2.9886 0.0 0
M  V30 9 C 1.2994 3.7446 0.0 0
M  V30 END ATOM
M  V30 BEGIN BOND
M  V30 1 1 1 2
M  V30 2 1 2 3
M  V30 3 1 2 4
M  V30 4 1 2 5
M  V30 5 3 3 6
M  V30 6 1 4 7
M  V30 7 1 5 8
M  V30 8 1 7 9
M  V30 9 1 8 9
M  V30 END BOND
M  V30 END CTAB
M  END
>  <Molecule Name>
1-Ethynylcyclohexanol

>  <Activity Label>
0

>  <SMILES>
C#CC1(CCCCC1)O

>  <Molecular Formula>
C8H12O

>  <InChIKey>
QYLFHLNFIHBCPR-UHFFFAOYSA-N

>  <Repellency>
Inactive

>  <Reference DOI>
10.3390/toxics11100837

>  <Target Organism>
Not applied

$$$$
Compound 126
Actelion Java MolfileCreator 2.0

  0  0  0  0  0  0              0 V3000
M  V30 BEGIN CTAB
M  V30 COUNTS 9 9 0 0 0
M  V30 BEGIN ATOM
M  V30 1 O 0.0 0.0 0.0 0
M  V30 2 C -1.2999 -0.7445 0.0 0
M  V30 3 C 1.2999 -0.7445 0.0 0
M  V30 4 C -2.5999 0.0118 0.0 0
M  V30 5 C -1.2999 -2.2453 0.0 0
M  V30 6 C -3.8998 -0.7327 0.0 0
M  V30 7 C -2.5999 -2.9899 0.0 0
M  V30 8 C -3.8998 -2.2335 0.0 0
M  V30 9 C -5.1998 -2.978 0.0 0
M  V30 END ATOM
M  V30 BEGIN BOND
M  V30 1 1 1 2
M  V30 2 1 1 3
M  V30 3 2 2 4
M  V30 4 1 2 5
M  V30 5 1 4 6
M  V30 6 2 5 7
M  V30 7 2 6 8
M  V30 8 1 8 9
M  V30 9 1 7 8
M  V30 END BOND
M  V30 END CTAB
M  END
>  <Molecule Name>
p-Cresyl methyl ether

>  <Activity Label>
0

>  <SMILES>
Cc(cc1)ccc1OC

>  <Molecular Formula>
C8H10O

>  <InChIKey>
CHLICZRVGGXEOD-UHFFFAOYSA-N

>  <Repellency>
Inactive

>  <Reference DOI>
10.3390/toxics11100837

>  <Target Organism>
Not applied

$$$$
Compound 127
Actelion Java MolfileCreator 2.0

  0  0  0  0  0  0              0 V3000
M  V30 BEGIN CTAB
M  V30 COUNTS 9 9 0 0 0
M  V30 BEGIN ATOM
M  V30 1 Br 0.0 0.0 0.0 0
M  V30 2 C 0.0 -1.5005 0.0 0
M  V30 3 C -1.2996 -2.2567 0.0 0
M  V30 4 C 1.2996 -2.2449 0.0 0
M  V30 5 O -2.5993 -1.5123 0.0 0
M  V30 6 C -1.2996 -3.7572 0.0 0
M  V30 7 C 1.2996 -3.7454 0.0 0
M  V30 8 C -3.899 -2.2567 0.0 0
M  V30 9 C 0.0 -4.5016 0.0 0
M  V30 END ATOM
M  V30 BEGIN BOND
M  V30 1 1 1 2
M  V30 2 2 2 3
M  V30 3 1 2 4
M  V30 4 1 3 5
M  V30 5 1 3 6
M  V30 6 2 4 7
M  V30 7 1 5 8
M  V30 8 2 6 9
M  V30 9 1 7 9
M  V30 END BOND
M  V30 END CTAB
M  END
>  <Molecule Name>
o-Bromoanisole

>  <Activity Label>
0

>  <SMILES>
COc(cccc1)c1Br

>  <Molecular Formula>
C7H7OBr

>  <InChIKey>
HTDQSWDEWGSAMN-UHFFFAOYSA-N

>  <Repellency>
Inactive

>  <Reference DOI>
10.3390/toxics11100837

>  <Target Organism>
Not applied

$$$$
Compound 128
Actelion Java MolfileCreator 2.0

  0  0  0  0  0  0              0 V3000
M  V30 BEGIN CTAB
M  V30 COUNTS 9 9 0 0 0
M  V30 BEGIN ATOM
M  V30 1 N 0.0 0.0 0.0 0
M  V30 2 C 0.0 -1.5002 0.0 0
M  V30 3 C 0.0 -3.0004 0.0 0
M  V30 4 C -1.2994 -3.7446 0.0 0
M  V30 5 C -2.5988 -2.9886 0.0 0
M  V30 6 C -1.2994 -5.2449 0.0 0
M  V30 7 C -3.8982 -3.7328 0.0 0
M  V30 8 C -2.5988 -5.9891 0.0 0
M  V30 9 C -3.8982 -5.2331 0.0 0
M  V30 END ATOM
M  V30 BEGIN BOND
M  V30 1 3 1 2
M  V30 2 1 2 3
M  V30 3 1 3 4
M  V30 4 2 4 5
M  V30 5 1 4 6
M  V30 6 1 5 7
M  V30 7 2 6 8
M  V30 8 2 7 9
M  V30 9 1 8 9
M  V30 END BOND
M  V30 END CTAB
M  END
>  <Molecule Name>
Benzyl cyanide

>  <Activity Label>
0

>  <SMILES>
N#CCc1ccccc1

>  <Molecular Formula>
C8H7N

>  <InChIKey>
SUSQOBVLVYHIEX-UHFFFAOYSA-N

>  <Repellency>
Inactive

>  <Reference DOI>
10.3390/toxics11100837

>  <Target Organism>
Not applied

$$$$
Compound 129
Actelion Java MolfileCreator 2.0

  0  0  0  0  0  0              0 V3000
M  V30 BEGIN CTAB
M  V30 COUNTS 9 9 0 0 0
M  V30 BEGIN ATOM
M  V30 1 O 0.0 0.0 0.0 0
M  V30 2 C 0.0 -1.5005 0.0 0
M  V30 3 N -1.2996 -2.2449 0.0 0
M  V30 4 C 1.2996 -2.2449 0.0 0
M  V30 5 C -2.5993 -1.4887 0.0 0
M  V30 6 C -1.2996 -3.7454 0.0 0
M  V30 7 C -3.899 -2.2331 0.0 0
M  V30 8 C -2.5993 -4.4898 0.0 0
M  V30 9 O -3.899 -3.7336 0.0 0
M  V30 END ATOM
M  V30 BEGIN BOND
M  V30 1 2 1 2
M  V30 2 1 2 3
M  V30 3 1 2 4
M  V30 4 1 3 5
M  V30 5 1 3 6
M  V30 6 1 5 7
M  V30 7 1 6 8
M  V30 8 1 7 9
M  V30 9 1 8 9
M  V30 END BOND
M  V30 END CTAB
M  END
>  <Molecule Name>
4-Acetylmorpholine

>  <Activity Label>
0

>  <SMILES>
CC(N1CCOCC1)=O

>  <Molecular Formula>
C6H11NO2

>  <InChIKey>
KYWXRBNOYGGPIZ-UHFFFAOYSA-N

>  <Repellency>
Inactive

>  <Reference DOI>
10.3390/toxics11100837

>  <Target Organism>
Not applied

$$$$
Compound 130
Actelion Java MolfileCreator 2.0

  0  0  0  0  0  0              0 V3000
M  V30 BEGIN CTAB
M  V30 COUNTS 9 9 0 0 0
M  V30 BEGIN ATOM
M  V30 1 O 0.0 0.0 0.0 0
M  V30 2 C -0.2234 -1.4815 0.0 0
M  V30 3 N 1.0111 -2.328 0.0 0
M  V30 4 C -1.6578 -1.9283 0.0 0
M  V30 5 C 1.1287 -3.8213 0.0 0
M  V30 6 C 2.3045 -1.5755 0.0 0
M  V30 7 C -2.2105 -3.3275 0.0 0
M  V30 8 C 0.0352 -4.8443 0.0 0
M  V30 9 C -1.4579 -4.6209 0.0 0
M  V30 END ATOM
M  V30 BEGIN BOND
M  V30 1 2 1 2
M  V30 2 1 2 3
M  V30 3 1 2 4
M  V30 4 1 3 5
M  V30 5 1 3 6
M  V30 6 1 4 7
M  V30 7 1 5 8
M  V30 8 1 7 9
M  V30 9 1 8 9
M  V30 END BOND
M  V30 END CTAB
M  END
>  <Molecule Name>
N-methylcaprolactam

>  <Activity Label>
0

>  <SMILES>
CN(CCCCC1)C1=O

>  <Molecular Formula>
C7H13NO

>  <InChIKey>
ZWXPDGCFMMFNRW-UHFFFAOYSA-N

>  <Repellency>
Inactive

>  <Reference DOI>
10.3390/toxics11100837

>  <Target Organism>
Not applied

$$$$
Compound 131
Actelion Java MolfileCreator 2.0

  0  0  0  0  0  0              0 V3000
M  V30 BEGIN CTAB
M  V30 COUNTS 10 8 0 0 0
M  V30 BEGIN ATOM
M  V30 1 O 0.0 0.0 0.0 0
M  V30 2 C 0.7451 -1.301 0.0 0
M  V30 3 C 2.2472 -1.301 0.0 0
M  V30 4 C 0.0 -2.602 0.0 0
M  V30 5 O -4.6363 -1.3246 0.0 0
M  V30 6 C -3.1342 -1.3246 0.0 0
M  V30 7 C -2.3891 -2.6257 0.0 0
M  V30 8 C -2.3891 -0.0236 0.0 0
M  V30 9 O -3.1342 -3.9267 0.0 0
M  V30 10 O -3.1342 1.2773 0.0 0
M  V30 END ATOM
M  V30 BEGIN BOND
M  V30 1 2 1 2
M  V30 2 1 2 3
M  V30 3 1 2 4
M  V30 4 1 5 6
M  V30 5 1 6 7
M  V30 6 1 6 8
M  V30 7 1 7 9
M  V30 8 1 8 10
M  V30 END BOND
M  V30 END CTAB
M  END
>  <Molecule Name>
Glycerol acetone

>  <Activity Label>
0

>  <SMILES>
CC(C)=O.OCC(CO)O

>  <Molecular Formula>
C3H6O.C3H8O3

>  <InChIKey>
CQBPOPVKDNHISM-UHFFFAOYSA-N

>  <Repellency>
Inactive

>  <Reference DOI>
10.3390/toxics11100837

>  <Target Organism>
Not applied

$$$$
Compound 132
Actelion Java MolfileCreator 2.0

  0  0  0  0  0  0              0 V3000
M  V30 BEGIN CTAB
M  V30 COUNTS 10 10 0 0 0
M  V30 BEGIN ATOM
M  V30 1 C 0.0 0.0 0.0 0
M  V30 2 C 0.0 1.4995 0.0 0
M  V30 3 C -1.2988 -0.7557 0.0 0
M  V30 4 C 1.2988 -0.7557 0.0 0
M  V30 5 C -1.2988 2.2434 0.0 0
M  V30 6 C -2.5977 -0.0118 0.0 0
M  V30 7 C -2.5977 1.4877 0.0 0 CFG=2
M  V30 8 C -3.8965 2.2316 0.0 0
M  V30 9 C -3.8965 3.7312 0.0 0
M  V30 10 C -5.1954 1.4759 0.0 0
M  V30 END ATOM
M  V30 BEGIN BOND
M  V30 1 2 1 2
M  V30 2 1 1 3
M  V30 3 1 1 4
M  V30 4 1 2 5
M  V30 5 1 3 6
M  V30 6 1 5 7
M  V30 7 1 7 8 CFG=3
M  V30 8 2 8 9
M  V30 9 1 8 10
M  V30 10 1 6 7
M  V30 END BOND
M  V30 BEGIN COLLECTION
M  V30 MDLV30/STERAC1 ATOMS=(1 7)
M  V30 END COLLECTION
M  V30 END CTAB
M  END
>  <Molecule Name>
Limonene

>  <Activity Label>
0

>  <SMILES>
CC(C1CC=C(C)CC1)=C

>  <Molecular Formula>
C10H16

>  <InChIKey>
XMGQYMWWDOXHJM-UHFFFAOYSA-N

>  <Repellency>
Inactive

>  <Reference DOI>
10.3390/toxics11100837

>  <Target Organism>
Not applied

$$$$
Compound 133
Actelion Java MolfileCreator 2.0

  0  0  0  0  0  0              0 V3000
M  V30 BEGIN CTAB
M  V30 COUNTS 10 10 0 0 0
M  V30 BEGIN ATOM
M  V30 1 C 0.0 0.0 0.0 0
M  V30 2 C 0.0 -1.4995 0.0 0
M  V30 3 C 1.2988 0.7438 0.0 0
M  V30 4 C -1.2988 0.7438 0.0 0
M  V30 5 C 1.2988 -2.2552 0.0 0
M  V30 6 C 2.5977 -0.0118 0.0 0
M  V30 7 C -1.2988 2.2434 0.0 0
M  V30 8 C -2.5977 -0.0118 0.0 0
M  V30 9 C 2.5977 -1.5114 0.0 0
M  V30 10 C 3.8965 -2.2671 0.0 0
M  V30 END ATOM
M  V30 BEGIN BOND
M  V30 1 2 1 2
M  V30 2 1 1 3
M  V30 3 1 1 4
M  V30 4 1 2 5
M  V30 5 2 3 6
M  V30 6 1 4 7
M  V30 7 1 4 8
M  V30 8 2 5 9
M  V30 9 1 9 10
M  V30 10 1 6 9
M  V30 END BOND
M  V30 END CTAB
M  END
>  <Molecule Name>
p-Cymene

>  <Activity Label>
0

>  <SMILES>
CC(C)c1ccc(C)cc1

>  <Molecular Formula>
C10H14

>  <InChIKey>
HFPZCAJZSCWRBC-UHFFFAOYSA-N

>  <Repellency>
Inactive

>  <Reference DOI>
10.3390/toxics11100837

>  <Target Organism>
Not applied

$$$$
Compound 134
Actelion Java MolfileCreator 2.0

  0  0  0  0  0  0              0 V3000
M  V30 BEGIN CTAB
M  V30 COUNTS 10 10 0 0 0
M  V30 BEGIN ATOM
M  V30 1 O 0.0 0.0 0.0 0
M  V30 2 C 1.2996 -0.7561 0.0 0
M  V30 3 C -1.2996 -0.7443 0.0 0
M  V30 4 O 2.5992 -0.0118 0.0 0
M  V30 5 C 1.2996 -2.2566 0.0 0
M  V30 6 C -1.2996 -2.2447 0.0 0
M  V30 7 C 3.8988 -0.7561 0.0 0
M  V30 8 O 0.0 -3.0009 0.0 0
M  V30 9 O 2.5992 -3.0127 0.0 0
M  V30 10 C 3.8988 -2.2684 0.0 0
M  V30 END ATOM
M  V30 BEGIN BOND
M  V30 1 1 1 2
M  V30 2 1 1 3
M  V30 3 1 2 4
M  V30 4 1 2 5
M  V30 5 1 3 6
M  V30 6 1 4 7
M  V30 7 1 5 8
M  V30 8 1 5 9
M  V30 9 1 9 10
M  V30 10 1 6 8
M  V30 END BOND
M  V30 END CTAB
M  END
>  <Molecule Name>
2,3-Dimethoxy-1,4-dioxane

>  <Activity Label>
0

>  <SMILES>
COC1OCCOC1OC

>  <Molecular Formula>
C6H12O4

>  <InChIKey>
UOFNWHNRPMWMQL-UHFFFAOYSA-N

>  <Repellency>
Inactive

>  <Reference DOI>
10.3390/toxics11100837

>  <Target Organism>
Not applied

$$$$
Compound 135
Actelion Java MolfileCreator 2.0

  0  0  0  0  0  0              0 V3000
M  V30 BEGIN CTAB
M  V30 COUNTS 10 10 0 0 0
M  V30 BEGIN ATOM
M  V30 1 O 0.0 0.0 0.0 0
M  V30 2 C -1.3003 0.7447 0.0 0
M  V30 3 C -1.3003 2.2461 0.0 0
M  V30 4 C -2.6007 0.0 0.0 0
M  V30 5 O -2.6007 1.4895 0.0 0
M  V30 6 C 0.0 2.9909 0.0 0
M  V30 7 C -2.6007 2.9909 0.0 0
M  V30 8 C 0.0 4.4922 0.0 0
M  V30 9 C -2.6007 4.4922 0.0 0
M  V30 10 C -1.3003 5.237 0.0 0
M  V30 END ATOM
M  V30 BEGIN BOND
M  V30 1 2 1 2
M  V30 2 1 2 3
M  V30 3 1 2 4
M  V30 4 1 3 5
M  V30 5 1 3 6
M  V30 6 1 3 7
M  V30 7 1 6 8
M  V30 8 1 7 9
M  V30 9 1 8 10
M  V30 10 1 9 10
M  V30 END BOND
M  V30 END CTAB
M  END
>  <Molecule Name>
Methyl 1-hydroxycyclohexyl ketone

>  <Activity Label>
0

>  <SMILES>
CC(C1(CCCCC1)O)=O

>  <Molecular Formula>
C8H14O2

>  <InChIKey>
JKAKPUWJSRMKFH-UHFFFAOYSA-N

>  <Repellency>
Inactive

>  <Reference DOI>
10.3390/toxics11100837

>  <Target Organism>
Not applied

$$$$
Compound 136
Actelion Java MolfileCreator 2.0

  0  0  0  0  0  0              0 V3000
M  V30 BEGIN CTAB
M  V30 COUNTS 10 10 0 0 0
M  V30 BEGIN ATOM
M  V30 1 O 0.0 0.0 0.0 0
M  V30 2 C -1.3001 0.7446 0.0 0
M  V30 3 O -2.6002 0.0 0.0 0
M  V30 4 C -3.9003 0.7446 0.0 0
M  V30 5 C -5.2005 0.0 0.0 0
M  V30 6 C -6.5006 0.7564 0.0 0
M  V30 7 C -5.2005 -1.501 0.0 0
M  V30 8 C -7.8007 0.0118 0.0 0
M  V30 9 C -6.5006 -2.2456 0.0 0
M  V30 10 C -7.8007 -1.4892 0.0 0
M  V30 END ATOM
M  V30 BEGIN BOND
M  V30 1 2 1 2
M  V30 2 1 2 3
M  V30 3 1 3 4
M  V30 4 1 4 5
M  V30 5 2 5 6
M  V30 6 1 5 7
M  V30 7 1 6 8
M  V30 8 2 7 9
M  V30 9 2 8 10
M  V30 10 1 9 10
M  V30 END BOND
M  V30 END CTAB
M  END
>  <Molecule Name>
Formic acid, benzyl ester

>  <Activity Label>
0

>  <SMILES>
O=COCc1ccccc1

>  <Molecular Formula>
C8H8O2

>  <InChIKey>
UYWQUFXKFGHYNT-UHFFFAOYSA-N

>  <Repellency>
Inactive

>  <Reference DOI>
10.3390/toxics11100837

>  <Target Organism>
Not applied

$$$$
Compound 137
Actelion Java MolfileCreator 2.0

  0  0  0  0  0  0              0 V3000
M  V30 BEGIN CTAB
M  V30 COUNTS 10 10 0 0 0
M  V30 BEGIN ATOM
M  V30 1 O 0.0 0.0 0.0 0
M  V30 2 C 0.0 1.5001 0.0 0
M  V30 3 O -1.2993 2.2443 0.0 0
M  V30 4 C 1.2993 2.2443 0.0 0
M  V30 5 C -2.5987 1.4883 0.0 0
M  V30 6 C 2.5987 1.5001 0.0 0
M  V30 7 C 1.2993 3.7445 0.0 0
M  V30 8 C 3.8981 2.2561 0.0 0
M  V30 9 C 2.5987 4.5005 0.0 0
M  V30 10 C 3.8981 3.7563 0.0 0
M  V30 END ATOM
M  V30 BEGIN BOND
M  V30 1 2 1 2
M  V30 2 1 2 3
M  V30 3 1 2 4
M  V30 4 1 3 5
M  V30 5 1 4 6
M  V30 6 1 4 7
M  V30 7 1 6 8
M  V30 8 1 7 9
M  V30 9 1 8 10
M  V30 10 1 9 10
M  V30 END BOND
M  V30 END CTAB
M  END
>  <Molecule Name>
Cyclohexanecarboxylic acid, methyl ester

>  <Activity Label>
0

>  <SMILES>
COC(C1CCCCC1)=O

>  <Molecular Formula>
C8H14O2

>  <InChIKey>
ZQWPRMPSCMSAJU-UHFFFAOYSA-N

>  <Repellency>
Inactive

>  <Reference DOI>
10.3390/toxics11100837

>  <Target Organism>
Not applied

$$$$
Compound 138
Actelion Java MolfileCreator 2.0

  0  0  0  0  0  0              0 V3000
M  V30 BEGIN CTAB
M  V30 COUNTS 10 10 0 0 0
M  V30 BEGIN ATOM
M  V30 1 O 0.0 0.0 0.0 0
M  V30 2 C 0.0 1.5007 0.0 0
M  V30 3 O -1.2998 2.2452 0.0 0
M  V30 4 C 1.2998 2.2452 0.0 0
M  V30 5 C -2.5997 1.5007 0.0 0
M  V30 6 C -3.8996 2.257 0.0 0
M  V30 7 C -2.5997 0.0 0.0 0
M  V30 8 C -5.1995 1.5125 0.0 0
M  V30 9 C -3.8996 -0.7444 0.0 0
M  V30 10 C -5.1995 0.0118 0.0 0
M  V30 END ATOM
M  V30 BEGIN BOND
M  V30 1 2 1 2
M  V30 2 1 2 3
M  V30 3 1 2 4
M  V30 4 1 3 5
M  V30 5 2 5 6
M  V30 6 1 5 7
M  V30 7 1 6 8
M  V30 8 2 7 9
M  V30 9 2 8 10
M  V30 10 1 9 10
M  V30 END BOND
M  V30 END CTAB
M  END
>  <Molecule Name>
Acetic acid, Phenyl ester

>  <Activity Label>
0

>  <SMILES>
CC(Oc1ccccc1)=O

>  <Molecular Formula>
C8H8O2

>  <InChIKey>
IPBVNPXQWQGGJP-UHFFFAOYSA-N

>  <Repellency>
Inactive

>  <Reference DOI>
10.3390/toxics11100837

>  <Target Organism>
Not applied

$$$$
Compound 139
Actelion Java MolfileCreator 2.0

  0  0  0  0  0  0              0 V3000
M  V30 BEGIN CTAB
M  V30 COUNTS 10 10 0 0 0
M  V30 BEGIN ATOM
M  V30 1 O 0.0 0.0 0.0 0
M  V30 2 C 0.0 1.5007 0.0 0
M  V30 3 O -1.2998 2.2452 0.0 0
M  V30 4 C 1.2998 2.2452 0.0 0
M  V30 5 C -2.5997 1.5007 0.0 0
M  V30 6 C -3.8996 2.257 0.0 0
M  V30 7 C -2.5997 0.0 0.0 0
M  V30 8 C -5.1995 1.5125 0.0 0
M  V30 9 C -3.8996 -0.7444 0.0 0
M  V30 10 C -5.1995 0.0118 0.0 0
M  V30 END ATOM
M  V30 BEGIN BOND
M  V30 1 2 1 2
M  V30 2 1 2 3
M  V30 3 1 2 4
M  V30 4 1 3 5
M  V30 5 1 5 6
M  V30 6 1 5 7
M  V30 7 1 6 8
M  V30 8 1 7 9
M  V30 9 1 8 10
M  V30 10 1 9 10
M  V30 END BOND
M  V30 END CTAB
M  END
>  <Molecule Name>
Acetic acid, cyclohexyl ester

>  <Activity Label>
0

>  <SMILES>
CC(OC1CCCCC1)=O

>  <Molecular Formula>
C8H14O2

>  <InChIKey>
YYLLIJHXUHJATK-UHFFFAOYSA-N

>  <Repellency>
Inactive

>  <Reference DOI>
10.3390/toxics11100837

>  <Target Organism>
Not applied

$$$$
Compound 140
Actelion Java MolfileCreator 2.0

  0  0  0  0  0  0              0 V3000
M  V30 BEGIN CTAB
M  V30 COUNTS 10 10 0 0 0
M  V30 BEGIN ATOM
M  V30 1 O 0.0 0.0 0.0 0
M  V30 2 C 1.2996 0.7443 0.0 0
M  V30 3 C 2.5992 0.0 0.0 0
M  V30 4 C 1.2996 2.2448 0.0 0
M  V30 5 C 3.8989 0.7561 0.0 0
M  V30 6 C 2.5992 -1.5004 0.0 0
M  V30 7 O 3.8989 2.2566 0.0 0
M  V30 8 C 5.1985 0.0118 0.0 0
M  V30 9 C 3.8989 -2.2448 0.0 0
M  V30 10 C 5.1985 -1.4886 0.0 0
M  V30 END ATOM
M  V30 BEGIN BOND
M  V30 1 2 1 2
M  V30 2 1 2 3
M  V30 3 1 2 4
M  V30 4 2 3 5
M  V30 5 1 3 6
M  V30 6 1 5 7
M  V30 7 1 5 8
M  V30 8 2 6 9
M  V30 9 2 8 10
M  V30 10 1 9 10
M  V30 END BOND
M  V30 END CTAB
M  END
>  <Molecule Name>
o-hydroxyacetophenone

>  <Activity Label>
0

>  <SMILES>
CC(c(cccc1)c1O)=O

>  <Molecular Formula>
C8H8O2

>  <InChIKey>
JECYUBVRTQDVAT-UHFFFAOYSA-N

>  <Repellency>
Inactive

>  <Reference DOI>
10.3390/toxics11100837

>  <Target Organism>
Not applied

$$$$
Compound 141
Actelion Java MolfileCreator 2.0

  0  0  0  0  0  0              0 V3000
M  V30 BEGIN CTAB
M  V30 COUNTS 10 10 0 0 0
M  V30 BEGIN ATOM
M  V30 1 O 0.0 0.0 0.0 0
M  V30 2 C 1.2993 0.7441 0.0 0
M  V30 3 C 0.0 -1.5001 0.0 0
M  V30 4 C 1.2993 2.2443 0.0 0
M  V30 5 C 2.5987 -0.0118 0.0 0
M  V30 6 O 0.0 2.9885 0.0 0
M  V30 7 C 2.5987 2.9885 0.0 0
M  V30 8 C 3.8981 0.7323 0.0 0
M  V30 9 C -1.2993 2.2325 0.0 0
M  V30 10 C 3.8981 2.2325 0.0 0
M  V30 END ATOM
M  V30 BEGIN BOND
M  V30 1 1 1 2
M  V30 2 1 1 3
M  V30 3 2 2 4
M  V30 4 1 2 5
M  V30 5 1 4 6
M  V30 6 1 4 7
M  V30 7 2 5 8
M  V30 8 1 6 9
M  V30 9 2 7 10
M  V30 10 1 8 10
M  V30 END BOND
M  V30 END CTAB
M  END
>  <Molecule Name>
Veratrole

>  <Activity Label>
0

>  <SMILES>
COc(cccc1)c1OC

>  <Molecular Formula>
C8H10O2

>  <InChIKey>
ABDKAPXRBAPSQN-UHFFFAOYSA-N

>  <Repellency>
Inactive

>  <Reference DOI>
10.3390/toxics11100837

>  <Target Organism>
Not applied

$$$$
Compound 142
Actelion Java MolfileCreator 2.0

  0  0  0  0  0  0              0 V3000
M  V30 BEGIN CTAB
M  V30 COUNTS 10 10 0 0 0
M  V30 BEGIN ATOM
M  V30 1 O 0.0 0.0 0.0 0
M  V30 2 C 1.2996 -0.7561 0.0 0
M  V30 3 C -1.2996 -0.7443 0.0 0
M  V30 4 O 1.2996 -2.2566 0.0 0
M  V30 5 C 2.5992 -0.0118 0.0 0
M  V30 6 C 2.5992 -1.5122 0.0 0
M  V30 7 C -1.2996 -2.2447 0.0 0
M  V30 8 C 0.0 -3.0009 0.0 0
M  V30 9 C 3.8988 -0.7561 0.0 0
M  V30 10 C 5.1984 -0.0118 0.0 0
M  V30 END ATOM
M  V30 BEGIN BOND
M  V30 1 1 1 2
M  V30 2 1 1 3
M  V30 3 1 2 4
M  V30 4 1 2 5
M  V30 5 1 2 6
M  V30 6 1 3 7
M  V30 7 1 4 8
M  V30 8 1 5 9
M  V30 9 1 9 10
M  V30 10 1 7 8
M  V30 END BOND
M  V30 END CTAB
M  END
>  <Molecule Name>
2-Methyl-2-n-propyl-m-dioxane

>  <Activity Label>
0

>  <SMILES>
CCCC1(C)OCCCO1

>  <Molecular Formula>
C8H16O2

>  <InChIKey>
HDOIBVZWOIBSHI-UHFFFAOYSA-N

>  <Repellency>
Inactive

>  <Reference DOI>
10.3390/toxics11100837

>  <Target Organism>
Not applied

$$$$
Compound 143
Actelion Java MolfileCreator 2.0

  0  0  0  0  0  0              0 V3000
M  V30 BEGIN CTAB
M  V30 COUNTS 10 10 0 0 0
M  V30 BEGIN ATOM
M  V30 1 O 0.0 0.0 0.0 0
M  V30 2 C 1.2993 0.7441 0.0 0
M  V30 3 C 2.5987 0.0 0.0 0
M  V30 4 C 2.5987 -1.5001 0.0 0
M  V30 5 C 3.8981 0.7559 0.0 0
M  V30 6 C 3.8981 -2.2443 0.0 0
M  V30 7 C 1.2993 -2.2561 0.0 0
M  V30 8 C 5.1974 0.0118 0.0 0
M  V30 9 C 3.8981 2.2561 0.0 0
M  V30 10 C 5.1974 -1.4883 0.0 0
M  V30 END ATOM
M  V30 BEGIN BOND
M  V30 1 2 1 2
M  V30 2 1 2 3
M  V30 3 1 3 4
M  V30 4 1 3 5
M  V30 5 1 4 6
M  V30 6 1 4 7
M  V30 7 1 5 8
M  V30 8 1 5 9
M  V30 9 2 6 10
M  V30 10 1 8 10
M  V30 END BOND
M  V30 END CTAB
M  END
>  <Molecule Name>
2,6-Dimethyl-1,2,3,6-tetrahydrobenzaldehyde

>  <Activity Label>
0

>  <SMILES>
CC(CC=CC1C)C1C=O

>  <Molecular Formula>
C9H14O

>  <InChIKey>
CJHVOGFYMKIUAW-UHFFFAOYSA-N

>  <Repellency>
Inactive

>  <Reference DOI>
10.3390/toxics11100837

>  <Target Organism>
Not applied

$$$$
Compound 144
Actelion Java MolfileCreator 2.0

  0  0  0  0  0  0              0 V3000
M  V30 BEGIN CTAB
M  V30 COUNTS 10 10 0 0 0
M  V30 BEGIN ATOM
M  V30 1 O 0.0 0.0 0.0 0
M  V30 2 C -1.3009 -0.745 0.0 0
M  V30 3 C -2.6018 0.0 0.0 0
M  V30 4 C -2.6018 1.5019 0.0 0
M  V30 5 C -3.9027 -0.745 0.0 0
M  V30 6 C -1.3009 2.247 0.0 0
M  V30 7 C -3.9027 2.247 0.0 0
M  V30 8 C -1.3009 3.7489 0.0 0
M  V30 9 C -3.9027 3.7489 0.0 0
M  V30 10 C -2.6018 4.494 0.0 0
M  V30 END ATOM
M  V30 BEGIN BOND
M  V30 1 2 1 2
M  V30 2 1 2 3
M  V30 3 1 3 4
M  V30 4 1 3 5
M  V30 5 2 4 6
M  V30 6 1 4 7
M  V30 7 1 6 8
M  V30 8 2 7 9
M  V30 9 2 8 10
M  V30 10 1 9 10
M  V30 END BOND
M  V30 END CTAB
M  END
>  <Molecule Name>
Hydratropic aldehyde

>  <Activity Label>
0

>  <SMILES>
CC(C=O)c1ccccc1

>  <Molecular Formula>
C9H10O

>  <InChIKey>
IQVAERDLDAZARL-UHFFFAOYSA-N

>  <Repellency>
Inactive

>  <Reference DOI>
10.3390/toxics11100837

>  <Target Organism>
Not applied

$$$$
Compound 145
Actelion Java MolfileCreator 2.0

  0  0  0  0  0  0              0 V3000
M  V30 BEGIN CTAB
M  V30 COUNTS 10 10 0 0 0
M  V30 BEGIN ATOM
M  V30 1 O 0.0 0.0 0.0 0
M  V30 2 C 1.2991 0.744 0.0 0
M  V30 3 C 1.2991 2.2439 0.0 0
M  V30 4 C 2.5982 -0.0118 0.0 0
M  V30 5 C 2.5982 2.9879 0.0 0
M  V30 6 C 3.8973 0.7322 0.0 0
M  V30 7 C 3.8973 2.232 0.0 0
M  V30 8 C 3.354 4.287 0.0 0
M  V30 9 C 1.8541 4.287 0.0 0
M  V30 10 C 5.1964 -0.0236 0.0 0
M  V30 END ATOM
M  V30 BEGIN BOND
M  V30 1 1 1 2
M  V30 2 1 2 3
M  V30 3 1 2 4
M  V30 4 1 3 5
M  V30 5 1 4 6
M  V30 6 1 5 7
M  V30 7 1 5 8
M  V30 8 1 5 9
M  V30 9 1 6 10
M  V30 10 1 6 7
M  V30 END BOND
M  V30 END CTAB
M  END
>  <Molecule Name>
3,3,5-Trimethylcyclohexanol

>  <Activity Label>
0

>  <SMILES>
CC(C1)CC(C)(C)CC1O

>  <Molecular Formula>
C9H18O

>  <InChIKey>
BRRVXFOKWJKTGG-UHFFFAOYSA-N

>  <Repellency>
Inactive

>  <Reference DOI>
10.3390/toxics11100837

>  <Target Organism>
Not applied

$$$$
Compound 146
Actelion Java MolfileCreator 2.0

  0  0  0  0  0  0              0 V3000
M  V30 BEGIN CTAB
M  V30 COUNTS 10 10 0 0 0
M  V30 BEGIN ATOM
M  V30 1 O 0.0 0.0 0.0 0
M  V30 2 C 1.2993 0.7441 0.0 0
M  V30 3 C 2.5987 -0.0118 0.0 0
M  V30 4 C 1.2993 2.2443 0.0 0
M  V30 5 C 3.8981 0.7323 0.0 0
M  V30 6 C 5.1974 -0.0118 0.0 0
M  V30 7 C 3.8981 2.2325 0.0 0
M  V30 8 C 6.4968 0.7441 0.0 0
M  V30 9 C 5.1974 2.9885 0.0 0
M  V30 10 C 6.4968 2.2443 0.0 0
M  V30 END ATOM
M  V30 BEGIN BOND
M  V30 1 2 1 2
M  V30 2 1 2 3
M  V30 3 1 2 4
M  V30 4 1 3 5
M  V30 5 2 5 6
M  V30 6 1 5 7
M  V30 7 1 6 8
M  V30 8 2 7 9
M  V30 9 2 8 10
M  V30 10 1 9 10
M  V30 END BOND
M  V30 END CTAB
M  END
>  <Molecule Name>
Phenyl acetone

>  <Activity Label>
0

>  <SMILES>
CC(Cc1ccccc1)=O

>  <Molecular Formula>
C9H10O

>  <InChIKey>
QCCDLTOVEPVEJK-UHFFFAOYSA-N

>  <Repellency>
Inactive

>  <Reference DOI>
10.3390/toxics11100837

>  <Target Organism>
Not applied

$$$$
Compound 147
Actelion Java MolfileCreator 2.0

  0  0  0  0  0  0              0 V3000
M  V30 BEGIN CTAB
M  V30 COUNTS 10 10 0 0 0
M  V30 BEGIN ATOM
M  V30 1 O 0.0 0.0 0.0 0
M  V30 2 C -1.3001 0.7446 0.0 0
M  V30 3 C 1.3001 0.7446 0.0 0
M  V30 4 C -2.6002 0.0 0.0 0
M  V30 5 C 2.6002 0.0 0.0 0
M  V30 6 C -3.9003 0.7564 0.0 0
M  V30 7 C -2.6002 -1.501 0.0 0
M  V30 8 C -5.2005 0.0118 0.0 0
M  V30 9 C -3.9003 -2.2456 0.0 0
M  V30 10 C -5.2005 -1.4892 0.0 0
M  V30 END ATOM
M  V30 BEGIN BOND
M  V30 1 1 1 2
M  V30 2 1 1 3
M  V30 3 1 2 4
M  V30 4 1 3 5
M  V30 5 2 4 6
M  V30 6 1 4 7
M  V30 7 1 6 8
M  V30 8 2 7 9
M  V30 9 2 8 10
M  V30 10 1 9 10
M  V30 END BOND
M  V30 END CTAB
M  END
>  <Molecule Name>
Benzyl ethyl ether

>  <Activity Label>
0

>  <SMILES>
CCOCc1ccccc1

>  <Molecular Formula>
C9H12O

>  <InChIKey>
AXPZDYVDTMMLNB-UHFFFAOYSA-N

>  <Repellency>
Inactive

>  <Reference DOI>
10.3390/toxics11100837

>  <Target Organism>
Not applied

$$$$
Compound 148
Actelion Java MolfileCreator 2.0

  0  0  0  0  0  0              0 V3000
M  V30 BEGIN CTAB
M  V30 COUNTS 10 10 0 0 0
M  V30 BEGIN ATOM
M  V30 1 O 0.0 0.0 0.0 0
M  V30 2 C 1.2985 -0.7555 0.0 0
M  V30 3 C -1.2985 -0.7555 0.0 0
M  V30 4 C 1.2985 -2.2548 0.0 0
M  V30 5 C 2.5971 -0.0118 0.0 0
M  V30 6 C -2.5971 -0.0118 0.0 0
M  V30 7 C 2.5971 -3.0103 0.0 0
M  V30 8 C 3.8957 -0.7673 0.0 0
M  V30 9 C -3.8957 -0.7673 0.0 0
M  V30 10 C 3.8957 -2.2666 0.0 0
M  V30 END ATOM
M  V30 BEGIN BOND
M  V30 1 1 1 2
M  V30 2 1 1 3
M  V30 3 2 2 4
M  V30 4 1 2 5
M  V30 5 1 3 6
M  V30 6 1 4 7
M  V30 7 2 5 8
M  V30 8 2 6 9
M  V30 9 2 7 10
M  V30 10 1 8 10
M  V30 END BOND
M  V30 END CTAB
M  END
>  <Molecule Name>
Allyl phenyl ether

>  <Activity Label>
0

>  <SMILES>
C=CCOc1ccccc1

>  <Molecular Formula>
C9H10O

>  <InChIKey>
POSICDHOUBKJKP-UHFFFAOYSA-N

>  <Repellency>
Inactive

>  <Reference DOI>
10.3390/toxics11100837

>  <Target Organism>
Not applied

$$$$
Compound 149
Actelion Java MolfileCreator 2.0

  0  0  0  0  0  0              0 V3000
M  V30 BEGIN CTAB
M  V30 COUNTS 10 10 0 0 0
M  V30 BEGIN ATOM
M  V30 1 O 0.0 0.0 0.0 0
M  V30 2 C 1.2988 -0.7557 0.0 0
M  V30 3 C -1.2988 -0.7557 0.0 0
M  V30 4 C 2.5977 -0.0118 0.0 0
M  V30 5 C 1.2988 -2.2552 0.0 0
M  V30 6 C 3.8965 -0.7675 0.0 0
M  V30 7 C 2.5977 -3.0109 0.0 0
M  V30 8 C 3.8965 -2.2671 0.0 0
M  V30 9 C 5.1954 -0.0236 0.0 0
M  V30 10 C 2.5977 -4.5105 0.0 0
M  V30 END ATOM
M  V30 BEGIN BOND
M  V30 1 1 1 2
M  V30 2 1 1 3
M  V30 3 2 2 4
M  V30 4 1 2 5
M  V30 5 1 4 6
M  V30 6 2 5 7
M  V30 7 2 6 8
M  V30 8 1 6 9
M  V30 9 1 7 10
M  V30 10 1 7 8
M  V30 END BOND
M  V30 END CTAB
M  END
>  <Molecule Name>
3,5-Dimethylanisole

>  <Activity Label>
0

>  <SMILES>
Cc1cc(OC)cc(C)c1

>  <Molecular Formula>
C9H12O

>  <InChIKey>
JCHJBEZBHANKGA-UHFFFAOYSA-N

>  <Repellency>
Inactive

>  <Reference DOI>
10.3390/toxics11100837

>  <Target Organism>
Not applied

$$$$
Compound 150
Actelion Java MolfileCreator 2.0

  0  0  0  0  0  0              0 V3000
M  V30 BEGIN CTAB
M  V30 COUNTS 10 10 0 0 0
M  V30 BEGIN ATOM
M  V30 1 Cl 0.0 0.0 0.0 0
M  V30 2 C -1.2988 0.7557 0.0 0
M  V30 3 C -1.2988 2.2552 0.0 0
M  V30 4 C -2.5977 0.0118 0.0 0
M  V30 5 C -2.5977 3.0109 0.0 0
M  V30 6 C -3.8965 0.7557 0.0 0
M  V30 7 C -3.8965 2.2552 0.0 0
M  V30 8 C -5.1954 2.9991 0.0 0
M  V30 9 O -6.4943 2.2434 0.0 0
M  V30 10 C -5.1954 4.4987 0.0 0
M  V30 END ATOM
M  V30 BEGIN BOND
M  V30 1 1 1 2
M  V30 2 2 2 3
M  V30 3 1 2 4
M  V30 4 1 3 5
M  V30 5 2 4 6
M  V30 6 2 5 7
M  V30 7 1 7 8
M  V30 8 2 8 9
M  V30 9 1 8 10
M  V30 10 1 6 7
M  V30 END BOND
M  V30 END CTAB
M  END
>  <Molecule Name>
p-Chloroacetophenone

>  <Activity Label>
0

>  <SMILES>
CC(c(cc1)ccc1Cl)=O

>  <Molecular Formula>
C8H7OCl

>  <InChIKey>
BUZYGTVTZYSBCU-UHFFFAOYSA-N

>  <Repellency>
Inactive

>  <Reference DOI>
10.3390/toxics11100837

>  <Target Organism>
Not applied

$$$$
Compound 151
Actelion Java MolfileCreator 2.0

  0  0  0  0  0  0              0 V3000
M  V30 BEGIN CTAB
M  V30 COUNTS 10 10 0 0 0
M  V30 BEGIN ATOM
M  V30 1 Br 0.0 0.0 0.0 0
M  V30 2 C 1.2985 -0.7437 0.0 0
M  V30 3 C 1.2985 -2.243 0.0 0
M  V30 4 C 2.5971 0.0 0.0 0
M  V30 5 O 0.0 -2.9985 0.0 0
M  V30 6 C 2.5971 -2.9985 0.0 0
M  V30 7 C 3.8957 -0.7437 0.0 0
M  V30 8 C -1.2985 -2.2548 0.0 0
M  V30 9 C 3.8957 -2.2548 0.0 0
M  V30 10 C -2.5971 -3.0103 0.0 0
M  V30 END ATOM
M  V30 BEGIN BOND
M  V30 1 1 1 2
M  V30 2 2 2 3
M  V30 3 1 2 4
M  V30 4 1 3 5
M  V30 5 1 3 6
M  V30 6 2 4 7
M  V30 7 1 5 8
M  V30 8 2 6 9
M  V30 9 1 8 10
M  V30 10 1 7 9
M  V30 END BOND
M  V30 END CTAB
M  END
>  <Molecule Name>
o-Bromophenetole

>  <Activity Label>
0

>  <SMILES>
CCOc(cccc1)c1Br

>  <Molecular Formula>
C8H9OBr

>  <InChIKey>
JVEQWIQHHWNMQX-UHFFFAOYSA-N

>  <Repellency>
Inactive

>  <Reference DOI>
10.3390/toxics11100837

>  <Target Organism>
Not applied

$$$$
Compound 152
Actelion Java MolfileCreator 2.0

  0  0  0  0  0  0              0 V3000
M  V30 BEGIN CTAB
M  V30 COUNTS 10 10 0 0 0
M  V30 BEGIN ATOM
M  V30 1 Br 0.0 0.0 0.0 0
M  V30 2 C -1.2985 -0.7555 0.0 0
M  V30 3 C -2.5971 -0.0118 0.0 0
M  V30 4 C -1.2985 -2.2548 0.0 0
M  V30 5 C -3.8957 -0.7673 0.0 0
M  V30 6 C -2.5971 -3.0103 0.0 0
M  V30 7 C -3.8957 -2.2666 0.0 0
M  V30 8 C -5.1943 -3.0221 0.0 0
M  V30 9 C -6.4929 -2.2784 0.0 0
M  V30 10 O -7.7915 -3.0339 0.0 0
M  V30 END ATOM
M  V30 BEGIN BOND
M  V30 1 1 1 2
M  V30 2 2 2 3
M  V30 3 1 2 4
M  V30 4 1 3 5
M  V30 5 2 4 6
M  V30 6 2 5 7
M  V30 7 1 7 8
M  V30 8 1 8 9
M  V30 9 1 9 10
M  V30 10 1 6 7
M  V30 END BOND
M  V30 END CTAB
M  END
>  <Molecule Name>
p-Bromophenylmethyl carbinol

>  <Activity Label>
0

>  <SMILES>
OCCc(cc1)ccc1Br

>  <Molecular Formula>
C8H9OBr

>  <InChIKey>
PMOSJSPFNDUAFY-UHFFFAOYSA-N

>  <Repellency>
Inactive

>  <Reference DOI>
10.3390/toxics11100837

>  <Target Organism>
Not applied

$$$$
Compound 153
Actelion Java MolfileCreator 2.0

  0  0  0  0  0  0              0 V3000
M  V30 BEGIN CTAB
M  V30 COUNTS 10 10 0 0 0
M  V30 BEGIN ATOM
M  V30 1 Br 0.0 0.0 0.0 0
M  V30 2 C -1.3001 0.7446 0.0 0
M  V30 3 C -2.6002 0.0 0.0 0
M  V30 4 O -3.9003 0.7446 0.0 0
M  V30 5 C -5.2005 0.0 0.0 0
M  V30 6 C -6.5006 0.7564 0.0 0
M  V30 7 C -5.2005 -1.501 0.0 0
M  V30 8 C -7.8007 0.0118 0.0 0
M  V30 9 C -6.5006 -2.2456 0.0 0
M  V30 10 C -7.8007 -1.4892 0.0 0
M  V30 END ATOM
M  V30 BEGIN BOND
M  V30 1 1 1 2
M  V30 2 1 2 3
M  V30 3 1 3 4
M  V30 4 1 4 5
M  V30 5 2 5 6
M  V30 6 1 5 7
M  V30 7 1 6 8
M  V30 8 2 7 9
M  V30 9 2 8 10
M  V30 10 1 9 10
M  V30 END BOND
M  V30 END CTAB
M  END
>  <Molecule Name>
beta-Bromophenetole

>  <Activity Label>
0

>  <SMILES>
BrCCOc1ccccc1

>  <Molecular Formula>
C8H9OBr

>  <InChIKey>
JJFOBACUIRKUPN-UHFFFAOYSA-N

>  <Repellency>
Inactive

>  <Reference DOI>
10.3390/toxics11100837

>  <Target Organism>
Not applied

$$$$
Compound 154
Actelion Java MolfileCreator 2.0

  0  0  0  0  0  0              0 V3000
M  V30 BEGIN CTAB
M  V30 COUNTS 10 10 0 0 0
M  V30 BEGIN ATOM
M  V30 1 Cl 0.0 0.0 0.0 0
M  V30 2 C 1.3016 0.7454 0.0 0
M  V30 3 C 1.3016 2.2483 0.0 0
M  V30 4 C 2.6033 0.0 0.0 0
M  V30 5 C 2.6033 2.9938 0.0 0
M  V30 6 C 3.9049 0.7454 0.0 0
M  V30 7 C 3.9049 2.2364 0.0 0
M  V30 8 O 5.2066 2.9819 0.0 0
M  V30 9 C 6.5083 2.2364 0.0 0
M  V30 10 C 7.8099 2.9819 0.0 0
M  V30 END ATOM
M  V30 BEGIN BOND
M  V30 1 1 1 2
M  V30 2 2 2 3
M  V30 3 1 2 4
M  V30 4 1 3 5
M  V30 5 2 4 6
M  V30 6 2 5 7
M  V30 7 1 7 8
M  V30 8 1 8 9
M  V30 9 1 9 10
M  V30 10 1 6 7
M  V30 END BOND
M  V30 END CTAB
M  END
>  <Molecule Name>
4-Chlorophenyl ethyl ether

>  <Activity Label>
0

>  <SMILES>
CCOc(cc1)ccc1Cl

>  <Molecular Formula>
C8H9OCl

>  <InChIKey>
IXLSVQMYQRAMEW-UHFFFAOYSA-N

>  <Repellency>
Inactive

>  <Reference DOI>
10.3390/toxics11100837

>  <Target Organism>
Not applied

$$$$
Compound 155
Actelion Java MolfileCreator 2.0

  0  0  0  0  0  0              0 V3000
M  V30 BEGIN CTAB
M  V30 COUNTS 10 10 0 0 0
M  V30 BEGIN ATOM
M  V30 1 O 0.0 0.0 0.0 0
M  V30 2 C 0.0 -1.4999 0.0 0
M  V30 3 O -1.2991 -2.2558 0.0 0
M  V30 4 C 1.2991 -2.2558 0.0 0
M  V30 5 C -2.5983 -1.5117 0.0 0
M  V30 6 C -3.8975 -2.2676 0.0 0
M  V30 7 O -4.051 -3.7557 0.0 0
M  V30 8 C -5.2675 -1.6534 0.0 0
M  V30 9 C -5.5155 -4.0628 0.0 0
M  V30 10 C -6.2714 -2.7636 0.0 0
M  V30 END ATOM
M  V30 BEGIN BOND
M  V30 1 2 1 2
M  V30 2 1 2 3
M  V30 3 1 2 4
M  V30 4 1 3 5
M  V30 5 1 5 6
M  V30 6 1 6 7
M  V30 7 2 6 8
M  V30 8 1 7 9
M  V30 9 1 8 10
M  V30 10 2 9 10
M  V30 END BOND
M  V30 END CTAB
M  END
>  <Molecule Name>
Acetic acid, furfuryl ester

>  <Activity Label>
0

>  <SMILES>
CC(OCc1ccc[o]1)=O

>  <Molecular Formula>
C7H8O3

>  <InChIKey>
CKOYRRWBOKMNRG-UHFFFAOYSA-N

>  <Repellency>
Inactive

>  <Reference DOI>
10.3390/toxics11100837

>  <Target Organism>
Not applied

$$$$
Compound 156
Actelion Java MolfileCreator 2.0

  0  0  0  0  0  0              0 V3000
M  V30 BEGIN CTAB
M  V30 COUNTS 10 10 0 0 0
M  V30 BEGIN ATOM
M  V30 1 Cl 0.0 0.0 0.0 0
M  V30 2 C -1.2996 -0.7443 0.0 0
M  V30 3 C -2.5992 0.0118 0.0 0
M  V30 4 C -1.2996 -2.2448 0.0 0
M  V30 5 C -3.8989 -0.7325 0.0 0
M  V30 6 C -2.5992 -2.9891 0.0 0
M  V30 7 C -3.8989 -2.233 0.0 0
M  V30 8 C -5.1985 -2.9773 0.0 0
M  V30 9 C -5.1985 -4.4778 0.0 0
M  V30 10 N -5.1985 -5.9783 0.0 0
M  V30 END ATOM
M  V30 BEGIN BOND
M  V30 1 1 1 2
M  V30 2 2 2 3
M  V30 3 1 2 4
M  V30 4 1 3 5
M  V30 5 2 4 6
M  V30 6 2 5 7
M  V30 7 1 7 8
M  V30 8 1 8 9
M  V30 9 3 9 10
M  V30 10 1 6 7
M  V30 END BOND
M  V30 END CTAB
M  END
>  <Molecule Name>
p-Chlorobenzylcyanide

>  <Activity Label>
0

>  <SMILES>
N#CCc(cc1)ccc1Cl

>  <Molecular Formula>
C8H6NCl

>  <InChIKey>
IVYMIRMKXZAHRV-UHFFFAOYSA-N

>  <Repellency>
Inactive

>  <Reference DOI>
10.3390/toxics11100837

>  <Target Organism>
Not applied

$$$$
Compound 157
Actelion Java MolfileCreator 2.0

  0  0  0  0  0  0              0 V3000
M  V30 BEGIN CTAB
M  V30 COUNTS 10 9 0 0 0
M  V30 BEGIN ATOM
M  V30 1 C 0.0 0.0 0.0 0
M  V30 2 C -1.2974 -0.7548 0.0 0
M  V30 3 C 0.0 1.4979 0.0 0
M  V30 4 C 1.2974 -0.7548 0.0 0
M  V30 5 C -1.2974 -2.2527 0.0 0
M  V30 6 C 2.5948 0.0 0.0 0
M  V30 7 C 3.8922 -0.7548 0.0 0
M  V30 8 C 5.1896 0.0 0.0 0
M  V30 9 C 6.487 -0.7548 0.0 0
M  V30 10 C 5.1896 1.4979 0.0 0
M  V30 END ATOM
M  V30 BEGIN BOND
M  V30 1 1 1 2
M  V30 2 2 1 3
M  V30 3 1 1 4
M  V30 4 2 2 5
M  V30 5 1 4 6
M  V30 6 1 6 7
M  V30 7 2 7 8
M  V30 8 1 8 9
M  V30 9 1 8 10
M  V30 END BOND
M  V30 END CTAB
M  END
>  <Molecule Name>
Myrcene

>  <Activity Label>
0

>  <SMILES>
CC(C)=CCCC(C=C)=C

>  <Molecular Formula>
C10H16

>  <InChIKey>
UAHWPYUMFXYFJY-UHFFFAOYSA-N

>  <Repellency>
Inactive

>  <Reference DOI>
10.3390/toxics11100837

>  <Target Organism>
Not applied

$$$$
Compound 158
Actelion Java MolfileCreator 2.0

  0  0  0  0  0  0              0 V3000
M  V30 BEGIN CTAB
M  V30 COUNTS 10 9 0 0 0
M  V30 BEGIN ATOM
M  V30 1 C 0.0 0.0 0.0 0
M  V30 2 C 1.2988 -0.7556 0.0 0
M  V30 3 C -1.2988 -0.7556 0.0 0
M  V30 4 C 0.0 1.4995 0.0 0
M  V30 5 C 2.5976 -0.0118 0.0 0
M  V30 6 C -2.5976 -0.0118 0.0 0
M  V30 7 C -3.8964 -0.7674 0.0 0
M  V30 8 C -5.1952 -0.0236 0.0 0
M  V30 9 C -6.4941 -0.7792 0.0 0
M  V30 10 C -5.1952 1.4759 0.0 0
M  V30 END ATOM
M  V30 BEGIN BOND
M  V30 1 1 1 2
M  V30 2 2 1 3 CFG=2
M  V30 3 1 1 4
M  V30 4 2 2 5
M  V30 5 1 3 6
M  V30 6 1 6 7
M  V30 7 2 7 8
M  V30 8 1 8 9
M  V30 9 1 8 10
M  V30 END BOND
M  V30 END CTAB
M  END
>  <Molecule Name>
3,7-Dimethyl-1,3,6-octatriene

>  <Activity Label>
0

>  <SMILES>
CC(C)=CCC=C(C)C=C

>  <Molecular Formula>
C10H16

>  <InChIKey>
IHPKGUQCSIINRJ-UHFFFAOYSA-N

>  <Repellency>
Inactive

>  <Reference DOI>
10.3390/toxics11100837

>  <Target Organism>
Not applied

$$$$
Compound 159
Actelion Java MolfileCreator 2.0

  0  0  0  0  0  0              0 V3000
M  V30 BEGIN CTAB
M  V30 COUNTS 10 9 0 0 0
M  V30 BEGIN ATOM
M  V30 1 O 0.0 0.0 0.0 0
M  V30 2 C 0.0 -1.4992 0.0 0
M  V30 3 O -1.2985 -2.2547 0.0 0
M  V30 4 C 1.2985 -2.2547 0.0 0 CFG=1
M  V30 5 C -2.5971 -1.511 0.0 0
M  V30 6 O 1.2985 -3.7539 0.0 0
M  V30 7 C 2.5971 -1.511 0.0 0
M  V30 8 C -3.8956 -2.2665 0.0 0
M  V30 9 O 2.5971 -0.0118 0.0 0
M  V30 10 C 3.8956 -2.2665 0.0 0
M  V30 END ATOM
M  V30 BEGIN BOND
M  V30 1 2 1 2
M  V30 2 1 2 3
M  V30 3 1 2 4
M  V30 4 1 3 5
M  V30 5 1 4 6 CFG=3
M  V30 6 1 4 7
M  V30 7 1 5 8
M  V30 8 2 7 9
M  V30 9 1 7 10
M  V30 END BOND
M  V30 BEGIN COLLECTION
M  V30 MDLV30/STERAC1 ATOMS=(1 4)
M  V30 END COLLECTION
M  V30 END CTAB
M  END
>  <Molecule Name>
Acetylglycolic acid, ethyl ester

>  <Activity Label>
0

>  <SMILES>
CCOC(C(C(C)=O)O)=O

>  <Molecular Formula>
C6H10O4

>  <InChIKey>
BKLZHQNOJJQEBA-UHFFFAOYSA-N

>  <Repellency>
Inactive

>  <Reference DOI>
10.3390/toxics11100837

>  <Target Organism>
Not applied

$$$$
Compound 160
Actelion Java MolfileCreator 2.0

  0  0  0  0  0  0              0 V3000
M  V30 BEGIN CTAB
M  V30 COUNTS 10 9 0 0 0
M  V30 BEGIN ATOM
M  V30 1 O 0.0 0.0 0.0 0
M  V30 2 C 0.0 -1.4995 0.0 0
M  V30 3 O -1.2988 -2.2552 0.0 0
M  V30 4 C 1.2988 -2.2552 0.0 0 CFG=1
M  V30 5 C -2.5976 -1.5113 0.0 0
M  V30 6 O 2.5976 -1.5113 0.0 0
M  V30 7 C 1.2988 -3.7547 0.0 0
M  V30 8 C -3.8964 -2.267 0.0 0
M  V30 9 O -5.1952 -1.5231 0.0 0
M  V30 10 C -6.4941 -2.2788 0.0 0
M  V30 END ATOM
M  V30 BEGIN BOND
M  V30 1 2 1 2
M  V30 2 1 2 3
M  V30 3 1 2 4
M  V30 4 1 3 5
M  V30 5 1 4 6 CFG=1
M  V30 6 1 4 7
M  V30 7 1 5 8
M  V30 8 1 8 9
M  V30 9 1 9 10
M  V30 END BOND
M  V30 BEGIN COLLECTION
M  V30 MDLV30/STERAC1 ATOMS=(1 4)
M  V30 END COLLECTION
M  V30 END CTAB
M  END
>  <Molecule Name>
Lactic acid, methoxyethyl ester

>  <Activity Label>
0

>  <SMILES>
CC(C(OCCOC)=O)O

>  <Molecular Formula>
C6H12O4

>  <InChIKey>
SYSKPGKUJADWSC-UHFFFAOYSA-N

>  <Repellency>
Inactive

>  <Reference DOI>
10.3390/toxics11100837

>  <Target Organism>
Not applied

$$$$
Compound 161
Actelion Java MolfileCreator 2.0

  0  0  0  0  0  0              0 V3000
M  V30 BEGIN CTAB
M  V30 COUNTS 10 9 0 0 0
M  V30 BEGIN ATOM
M  V30 1 O 0.0 0.0 0.0 0
M  V30 2 C 0.0 -1.4995 0.0 0
M  V30 3 O 1.2988 -2.2552 0.0 0
M  V30 4 C -1.2988 -2.2552 0.0 0
M  V30 5 C 2.5976 -1.5113 0.0 0
M  V30 6 C -2.5976 -1.5113 0.0 0
M  V30 7 C -3.8964 -2.267 0.0 0
M  V30 8 O -3.8964 -3.7665 0.0 0
M  V30 9 O -5.1952 -1.5231 0.0 0
M  V30 10 C -6.4941 -2.2788 0.0 0
M  V30 END ATOM
M  V30 BEGIN BOND
M  V30 1 2 1 2
M  V30 2 1 2 3
M  V30 3 1 2 4
M  V30 4 1 3 5
M  V30 5 1 4 6
M  V30 6 1 6 7
M  V30 7 2 7 8
M  V30 8 1 7 9
M  V30 9 1 9 10
M  V30 END BOND
M  V30 END CTAB
M  END
>  <Molecule Name>
Succinic acid, dimethyl ester

>  <Activity Label>
0

>  <SMILES>
COC(CCC(OC)=O)=O

>  <Molecular Formula>
C6H10O4

>  <InChIKey>
MUXOBHXGJLMRAB-UHFFFAOYSA-N

>  <Repellency>
Inactive

>  <Reference DOI>
10.3390/toxics11100837

>  <Target Organism>
Not applied

$$$$
Compound 162
Actelion Java MolfileCreator 2.0

  0  0  0  0  0  0              0 V3000
M  V30 BEGIN CTAB
M  V30 COUNTS 10 9 0 0 0
M  V30 BEGIN ATOM
M  V30 1 O 0.0 0.0 0.0 0
M  V30 2 C 1.3004 -0.7475 0.0 0
M  V30 3 C -1.3004 -0.7475 0.0 0
M  V30 4 C 2.6009 0.0 0.0 0
M  V30 5 C -2.6009 0.0 0.0 0
M  V30 6 O 3.9014 -0.7475 0.0 0
M  V30 7 O -3.9014 -0.7475 0.0 0
M  V30 8 C 5.2018 0.0 0.0 0
M  V30 9 C 6.5023 -0.7475 0.0 0
M  V30 10 O 7.8028 0.0 0.0 0
M  V30 END ATOM
M  V30 BEGIN BOND
M  V30 1 1 1 2
M  V30 2 1 1 3
M  V30 3 1 2 4
M  V30 4 1 3 5
M  V30 5 1 4 6
M  V30 6 1 5 7
M  V30 7 1 6 8
M  V30 8 1 8 9
M  V30 9 1 9 10
M  V30 END BOND
M  V30 END CTAB
M  END
>  <Molecule Name>
Triethylene glycol

>  <Activity Label>
0

>  <SMILES>
OCCOCCOCCO

>  <Molecular Formula>
C6H14O4

>  <InChIKey>
ZIBGPFATKBEMQZ-UHFFFAOYSA-N

>  <Repellency>
Inactive

>  <Reference DOI>
10.3390/toxics11100837

>  <Target Organism>
Not applied

$$$$
Compound 163
Actelion Java MolfileCreator 2.0

  0  0  0  0  0  0              0 V3000
M  V30 BEGIN CTAB
M  V30 COUNTS 10 9 0 0 0
M  V30 BEGIN ATOM
M  V30 1 O 0.0 0.0 0.0 0
M  V30 2 C 0.0 1.5002 0.0 0
M  V30 3 C -1.2993 2.2443 0.0 0 CFG=1
M  V30 4 C 1.2993 2.2443 0.0 0
M  V30 5 O -1.2993 3.7446 0.0 0
M  V30 6 C -2.5987 1.4883 0.0 0
M  V30 7 C 2.5987 1.4883 0.0 0
M  V30 8 C -3.8981 2.2325 0.0 0
M  V30 9 C 3.8981 2.2325 0.0 0
M  V30 10 C -5.1975 1.4765 0.0 0
M  V30 END ATOM
M  V30 BEGIN BOND
M  V30 1 2 1 2
M  V30 2 1 2 3
M  V30 3 1 2 4
M  V30 4 1 3 5 CFG=3
M  V30 5 1 3 6
M  V30 6 1 4 7
M  V30 7 1 6 8
M  V30 8 1 7 9
M  V30 9 1 8 10
M  V30 END BOND
M  V30 BEGIN COLLECTION
M  V30 MDLV30/STERAC1 ATOMS=(1 3)
M  V30 END COLLECTION
M  V30 END CTAB
M  END
>  <Molecule Name>
Butyroin

>  <Activity Label>
0

>  <SMILES>
CCCC(C(CCC)=O)O

>  <Molecular Formula>
C8H16O2

>  <InChIKey>
BVEYJWQCMOVMAR-UHFFFAOYSA-N

>  <Repellency>
Inactive

>  <Reference DOI>
10.3390/toxics11100837

>  <Target Organism>
Not applied

$$$$
Compound 164
Actelion Java MolfileCreator 2.0

  0  0  0  0  0  0              0 V3000
M  V30 BEGIN CTAB
M  V30 COUNTS 10 9 0 0 0
M  V30 BEGIN ATOM
M  V30 1 O 0.0 0.0 0.0 0
M  V30 2 C 0.0 1.4998 0.0 0
M  V30 3 O -1.299 2.2438 0.0 0
M  V30 4 C 1.299 2.2438 0.0 0
M  V30 5 C -2.5981 1.488 0.0 0
M  V30 6 C 2.5981 1.488 0.0 0
M  V30 7 C -3.8972 2.232 0.0 0
M  V30 8 C 3.8972 2.232 0.0 0
M  V30 9 C -5.1963 1.4762 0.0 0
M  V30 10 C 5.1963 1.4762 0.0 0
M  V30 END ATOM
M  V30 BEGIN BOND
M  V30 1 2 1 2
M  V30 2 1 2 3
M  V30 3 1 2 4
M  V30 4 1 3 5
M  V30 5 1 4 6
M  V30 6 1 5 7
M  V30 7 1 6 8
M  V30 8 1 7 9
M  V30 9 1 8 10
M  V30 END BOND
M  V30 END CTAB
M  END
>  <Molecule Name>
Valeric acid, n-propyl ester

>  <Activity Label>
0

>  <SMILES>
CCCCC(OCCC)=O

>  <Molecular Formula>
C8H16O2

>  <InChIKey>
ROJKPKOYARNFNB-UHFFFAOYSA-N

>  <Repellency>
Inactive

>  <Reference DOI>
10.3390/toxics11100837

>  <Target Organism>
Not applied

$$$$
Compound 165
Actelion Java MolfileCreator 2.0

  0  0  0  0  0  0              0 V3000
M  V30 BEGIN CTAB
M  V30 COUNTS 10 9 0 0 0
M  V30 BEGIN ATOM
M  V30 1 O 0.0 0.0 0.0 0
M  V30 2 C 0.0 1.5002 0.0 0
M  V30 3 O -1.2993 2.2443 0.0 0
M  V30 4 C 1.2993 2.2443 0.0 0
M  V30 5 C -2.5987 1.4883 0.0 0
M  V30 6 C 2.5987 1.4883 0.0 0
M  V30 7 C -3.8981 2.2325 0.0 0
M  V30 8 C 3.8981 2.2325 0.0 0
M  V30 9 C -3.8981 3.7327 0.0 0
M  V30 10 C -5.1975 1.4765 0.0 0
M  V30 END ATOM
M  V30 BEGIN BOND
M  V30 1 2 1 2
M  V30 2 1 2 3
M  V30 3 1 2 4
M  V30 4 1 3 5
M  V30 5 2 4 6
M  V30 6 1 5 7
M  V30 7 1 6 8
M  V30 8 1 7 9
M  V30 9 1 7 10
M  V30 END BOND
M  V30 END CTAB
M  END
>  <Molecule Name>
Crotonic acid, iso-butyl ester

>  <Activity Label>
0

>  <SMILES>
CC(C)COC(/C=C/C)=O

>  <Molecular Formula>
C8H14O2

>  <InChIKey>
XDOWKOALJBOBBL-SNAWJCMRSA-N

>  <Repellency>
Inactive

>  <Reference DOI>
10.3390/toxics11100837

>  <Target Organism>
Not applied

$$$$
Compound 166
Actelion Java MolfileCreator 2.0

  0  0  0  0  0  0              0 V3000
M  V30 BEGIN CTAB
M  V30 COUNTS 10 9 0 0 0
M  V30 BEGIN ATOM
M  V30 1 O 0.0 0.0 0.0 0
M  V30 2 C 0.0 -1.4992 0.0 0
M  V30 3 O -1.2985 -2.2547 0.0 0
M  V30 4 C 1.2985 -2.2547 0.0 0
M  V30 5 C -2.597 -1.511 0.0 0
M  V30 6 C 2.597 -1.511 0.0 0
M  V30 7 C -3.8955 -2.2665 0.0 0
M  V30 8 C 3.8955 -2.2665 0.0 0
M  V30 9 C -5.194 -1.5228 0.0 0
M  V30 10 C -6.4926 -2.2783 0.0 0
M  V30 END ATOM
M  V30 BEGIN BOND
M  V30 1 2 1 2
M  V30 2 1 2 3
M  V30 3 1 2 4
M  V30 4 1 3 5
M  V30 5 1 4 6
M  V30 6 1 5 7
M  V30 7 1 6 8
M  V30 8 1 7 9
M  V30 9 1 9 10
M  V30 END BOND
M  V30 END CTAB
M  END
>  <Molecule Name>
n-Butyric acid, n-butyl ester

>  <Activity Label>
0

>  <SMILES>
CCCCOC(CCC)=O

>  <Molecular Formula>
C8H16O2

>  <InChIKey>
XUPYJHCZDLZNFP-UHFFFAOYSA-N

>  <Repellency>
Inactive

>  <Reference DOI>
10.3390/toxics11100837

>  <Target Organism>
Not applied

$$$$
Compound 167
Actelion Java MolfileCreator 2.0

  0  0  0  0  0  0              0 V3000
M  V30 BEGIN CTAB
M  V30 COUNTS 10 9 0 0 0
M  V30 BEGIN ATOM
M  V30 1 O 0.0 0.0 0.0 0
M  V30 2 C 0.0 1.5011 0.0 0
M  V30 3 O -1.3002 2.2458 0.0 0
M  V30 4 C 1.3002 2.2458 0.0 0
M  V30 5 C -2.6004 1.4893 0.0 0
M  V30 6 C 2.6004 1.4893 0.0 0
M  V30 7 C -1.8557 0.1891 0.0 0
M  V30 8 C -3.9006 0.7446 0.0 0
M  V30 9 C -3.3451 2.7895 0.0 0
M  V30 10 C 3.9006 2.234 0.0 0
M  V30 END ATOM
M  V30 BEGIN BOND
M  V30 1 2 1 2
M  V30 2 1 2 3
M  V30 3 1 2 4
M  V30 4 1 3 5
M  V30 5 1 4 6
M  V30 6 1 5 7
M  V30 7 1 5 8
M  V30 8 1 5 9
M  V30 9 1 6 10
M  V30 END BOND
M  V30 END CTAB
M  END
>  <Molecule Name>
n-Butyric acid, tert-butyl ester

>  <Activity Label>
0

>  <SMILES>
CCCC(OC(C)(C)C)=O

>  <Molecular Formula>
C8H16O2

>  <InChIKey>
TWBUVVYSQBFVGZ-UHFFFAOYSA-N

>  <Repellency>
Inactive

>  <Reference DOI>
10.3390/toxics11100837

>  <Target Organism>
Not applied

$$$$
Compound 168
Actelion Java MolfileCreator 2.0

  0  0  0  0  0  0              0 V3000
M  V30 BEGIN CTAB
M  V30 COUNTS 10 9 0 0 0
M  V30 BEGIN ATOM
M  V30 1 O 0.0 0.0 0.0 0
M  V30 2 C 0.0 -1.4995 0.0 0
M  V30 3 O -1.2988 -2.2552 0.0 0
M  V30 4 C 1.2988 -2.2552 0.0 0
M  V30 5 C -2.5976 -1.5113 0.0 0
M  V30 6 C 2.5976 -1.5113 0.0 0
M  V30 7 C -2.5976 -0.0118 0.0 0
M  V30 8 C -3.8964 -2.267 0.0 0
M  V30 9 C 3.8964 -2.267 0.0 0
M  V30 10 C 5.1952 -1.5231 0.0 0
M  V30 END ATOM
M  V30 BEGIN BOND
M  V30 1 2 1 2
M  V30 2 1 2 3
M  V30 3 1 2 4
M  V30 4 1 3 5
M  V30 5 1 4 6
M  V30 6 1 5 7
M  V30 7 1 5 8
M  V30 8 1 6 9
M  V30 9 1 9 10
M  V30 END BOND
M  V30 END CTAB
M  END
>  <Molecule Name>
Valeric acid, iso-propyl ester

>  <Activity Label>
0

>  <SMILES>
CCCCC(OC(C)C)=O

>  <Molecular Formula>
C8H16O2

>  <InChIKey>
OCAIYHCKLADPEG-UHFFFAOYSA-N

>  <Repellency>
Inactive

>  <Reference DOI>
10.3390/toxics11100837

>  <Target Organism>
Not applied

$$$$
Compound 169
Actelion Java MolfileCreator 2.0

  0  0  0  0  0  0              0 V3000
M  V30 BEGIN CTAB
M  V30 COUNTS 10 9 0 0 0
M  V30 BEGIN ATOM
M  V30 1 O 0.0 0.0 0.0 0
M  V30 2 C 0.0 1.5005 0.0 0
M  V30 3 O -1.2996 2.2448 0.0 0
M  V30 4 C 1.2996 2.2448 0.0 0
M  V30 5 C -2.5993 1.4886 0.0 0
M  V30 6 C 0.5553 3.5445 0.0 0
M  V30 7 C 2.5993 2.9892 0.0 0
M  V30 8 C 2.0558 0.9452 0.0 0
M  V30 9 C -3.8989 2.233 0.0 0
M  V30 10 C -5.1986 1.4768 0.0 0
M  V30 END ATOM
M  V30 BEGIN BOND
M  V30 1 2 1 2
M  V30 2 1 2 3
M  V30 3 1 2 4
M  V30 4 1 3 5
M  V30 5 1 4 6
M  V30 6 1 4 7
M  V30 7 1 4 8
M  V30 8 1 5 9
M  V30 9 2 9 10
M  V30 END BOND
M  V30 END CTAB
M  END
>  <Molecule Name>
Pivalic acid, allyl ester

>  <Activity Label>
0

>  <SMILES>
CC(C)(C)C(OCC=C)=O

>  <Molecular Formula>
C8H14O2

>  <InChIKey>
GVVKBARIYRBZHC-UHFFFAOYSA-N

>  <Repellency>
Inactive

>  <Reference DOI>
10.3390/toxics11100837

>  <Target Organism>
Not applied

$$$$
Compound 170
Actelion Java MolfileCreator 2.0

  0  0  0  0  0  0              0 V3000
M  V30 BEGIN CTAB
M  V30 COUNTS 10 9 0 0 0
M  V30 BEGIN ATOM
M  V30 1 O 0.0 0.0 0.0 0
M  V30 2 C 0.0 -1.4992 0.0 0
M  V30 3 C -1.2985 -2.2547 0.0 0
M  V30 4 C 1.2985 -2.2547 0.0 0
M  V30 5 C -2.5971 -1.511 0.0 0
M  V30 6 C -1.2985 -3.7539 0.0 0
M  V30 7 O -2.5971 -0.0118 0.0 0
M  V30 8 C -3.8956 -2.2665 0.0 0
M  V30 9 C -5.1942 -1.5228 0.0 0
M  V30 10 C -6.4927 -2.2783 0.0 0
M  V30 END ATOM
M  V30 BEGIN BOND
M  V30 1 2 1 2
M  V30 2 1 2 3
M  V30 3 1 2 4
M  V30 4 1 3 5
M  V30 5 1 3 6
M  V30 6 1 5 7
M  V30 7 1 5 8
M  V30 8 1 8 9
M  V30 9 1 9 10
M  V30 END BOND
M  V30 END CTAB
M  END
>  <Molecule Name>
3-Methyl-4-hydroxy-2-heptanone

>  <Activity Label>
0

>  <SMILES>
CCCC(C(C)C(C)=O)O

>  <Molecular Formula>
C8H16O2

>  <InChIKey>
NQORAOWGAVMMJT-UHFFFAOYSA-N

>  <Repellency>
Inactive

>  <Reference DOI>
10.3390/toxics11100837

>  <Target Organism>
Not applied

$$$$
Compound 171
Actelion Java MolfileCreator 2.0

  0  0  0  0  0  0              0 V3000
M  V30 BEGIN CTAB
M  V30 COUNTS 10 9 0 0 0
M  V30 BEGIN ATOM
M  V30 1 O 0.0 0.0 0.0 0
M  V30 2 C -1.2993 0.7441 0.0 0
M  V30 3 C -1.2993 2.2443 0.0 0
M  V30 4 C -2.5987 -0.0118 0.0 0
M  V30 5 C -2.5987 2.9885 0.0 0
M  V30 6 C 0.0 2.9885 0.0 0
M  V30 7 O -3.8981 2.2325 0.0 0
M  V30 8 C -2.5987 4.4887 0.0 0
M  V30 9 C 1.2993 2.2325 0.0 0
M  V30 10 C 2.5987 2.9767 0.0 0
M  V30 END ATOM
M  V30 BEGIN BOND
M  V30 1 2 1 2
M  V30 2 1 2 3
M  V30 3 1 2 4
M  V30 4 1 3 5
M  V30 5 1 3 6
M  V30 6 2 5 7
M  V30 7 1 5 8
M  V30 8 1 6 9
M  V30 9 2 9 10
M  V30 END BOND
M  V30 END CTAB
M  END
>  <Molecule Name>
3-Allyl-2,4-pentanedione

>  <Activity Label>
0

>  <SMILES>
CC(C(CC=C)C(C)=O)=O

>  <Molecular Formula>
C8H12O2

>  <InChIKey>
QBQVCCUJHAORJO-UHFFFAOYSA-N

>  <Repellency>
Inactive

>  <Reference DOI>
10.3390/toxics11100837

>  <Target Organism>
Not applied

$$$$
Compound 172
Actelion Java MolfileCreator 2.0

  0  0  0  0  0  0              0 V3000
M  V30 BEGIN CTAB
M  V30 COUNTS 10 9 0 0 0
M  V30 BEGIN ATOM
M  V30 1 O 0.0 0.0 0.0 0
M  V30 2 C -1.2988 -0.7556 0.0 0
M  V30 3 C 1.2988 -0.7556 0.0 0
M  V30 4 C -2.5976 -0.0118 0.0 0
M  V30 5 C -1.2988 -2.2552 0.0 0
M  V30 6 C 2.5976 -0.0118 0.0 0
M  V30 7 O -3.8964 -0.7674 0.0 0
M  V30 8 C -2.5976 1.4877 0.0 0
M  V30 9 C -5.1952 -0.0236 0.0 0
M  V30 10 C -6.4941 -0.7792 0.0 0
M  V30 END ATOM
M  V30 BEGIN BOND
M  V30 1 1 1 2
M  V30 2 1 1 3
M  V30 3 1 2 4
M  V30 4 2 2 5
M  V30 5 1 3 6
M  V30 6 1 4 7
M  V30 7 2 4 8
M  V30 8 1 7 9
M  V30 9 1 9 10
M  V30 END BOND
M  V30 END CTAB
M  END
>  <Molecule Name>
2,3-diethoxy-1,3-butadiene

>  <Activity Label>
0

>  <SMILES>
CCOC(C(OCC)=C)=C

>  <Molecular Formula>
C8H14O2

>  <InChIKey>
NSCSTEHHIAANDP-UHFFFAOYSA-N

>  <Repellency>
Inactive

>  <Reference DOI>
10.3390/toxics11100837

>  <Target Organism>
Not applied

$$$$
Compound 173
Actelion Java MolfileCreator 2.0

  0  0  0  0  0  0              0 V3000
M  V30 BEGIN CTAB
M  V30 COUNTS 10 9 0 0 0
M  V30 BEGIN ATOM
M  V30 1 O 0.0 0.0 0.0 0
M  V30 2 C -1.2993 0.7441 0.0 0
M  V30 3 C -1.2993 2.2443 0.0 0
M  V30 4 C -2.5987 2.9885 0.0 0
M  V30 5 C 0.0 2.9885 0.0 0
M  V30 6 O -2.5987 4.4887 0.0 0
M  V30 7 C -3.8981 2.2325 0.0 0
M  V30 8 C 1.2993 2.2325 0.0 0
M  V30 9 C -5.1975 2.9767 0.0 0
M  V30 10 C -6.4969 2.2207 0.0 0
M  V30 END ATOM
M  V30 BEGIN BOND
M  V30 1 2 1 2
M  V30 2 1 2 3
M  V30 3 1 3 4
M  V30 4 1 3 5
M  V30 5 1 4 6
M  V30 6 1 4 7
M  V30 7 1 5 8
M  V30 8 1 7 9
M  V30 9 1 9 10
M  V30 END BOND
M  V30 END CTAB
M  END
>  <Molecule Name>
2-Ethyl-3-hydroxyhexanal

>  <Activity Label>
0

>  <SMILES>
CCCC(C(CC)C=O)O

>  <Molecular Formula>
C8H16O2

>  <InChIKey>
FMBAIQMSJGQWLF-UHFFFAOYSA-N

>  <Repellency>
Inactive

>  <Reference DOI>
10.3390/toxics11100837

>  <Target Organism>
Not applied

$$$$
Compound 174
Actelion Java MolfileCreator 2.0

  0  0  0  0  0  0              0 V3000
M  V30 BEGIN CTAB
M  V30 COUNTS 10 9 0 0 0
M  V30 BEGIN ATOM
M  V30 1 Br 0.0 0.0 0.0 0
M  V30 2 C -1.299 0.744 0.0 0
M  V30 3 C -2.5981 -0.0118 0.0 0
M  V30 4 C -3.8972 0.7322 0.0 0
M  V30 5 O -3.8972 2.232 0.0 0
M  V30 6 O -5.1963 -0.0236 0.0 0
M  V30 7 C -6.4954 0.7204 0.0 0
M  V30 8 C -7.7945 -0.0354 0.0 0
M  V30 9 C -9.0936 0.7085 0.0 0
M  V30 10 C -10.3927 -0.0472 0.0 0
M  V30 END ATOM
M  V30 BEGIN BOND
M  V30 1 1 1 2
M  V30 2 1 2 3
M  V30 3 1 3 4
M  V30 4 2 4 5
M  V30 5 1 4 6
M  V30 6 1 6 7
M  V30 7 1 7 8
M  V30 8 1 8 9
M  V30 9 1 9 10
M  V30 END BOND
M  V30 END CTAB
M  END
>  <Molecule Name>
beta-bromopropionic acid, n-butyl ester

>  <Activity Label>
0

>  <SMILES>
CCCCOC(CCBr)=O

>  <Molecular Formula>
C7H13O2Br

>  <InChIKey>
QDEAPWRQCUZSEZ-UHFFFAOYSA-N

>  <Repellency>
Inactive

>  <Reference DOI>
10.3390/toxics11100837

>  <Target Organism>
Not applied

$$$$
Compound 175
Actelion Java MolfileCreator 2.0

  0  0  0  0  0  0              0 V3000
M  V30 BEGIN CTAB
M  V30 COUNTS 10 9 0 0 0
M  V30 BEGIN ATOM
M  V30 1 Cl 0.0 0.0 0.0 0
M  V30 2 C -1.2988 -0.7556 0.0 0
M  V30 3 C -2.5976 -0.0118 0.0 0
M  V30 4 O -2.5976 1.4877 0.0 0
M  V30 5 O -3.8964 -0.7674 0.0 0
M  V30 6 C -5.1952 -0.0236 0.0 0
M  V30 7 C -6.4941 -0.7792 0.0 0
M  V30 8 C -7.7929 -0.0354 0.0 0
M  V30 9 C -7.7929 1.4641 0.0 0
M  V30 10 C -9.0917 -0.7911 0.0 0
M  V30 END ATOM
M  V30 BEGIN BOND
M  V30 1 1 1 2
M  V30 2 1 2 3
M  V30 3 2 3 4
M  V30 4 1 3 5
M  V30 5 1 5 6
M  V30 6 1 6 7
M  V30 7 1 7 8
M  V30 8 1 8 9
M  V30 9 1 8 10
M  V30 END BOND
M  V30 END CTAB
M  END
>  <Molecule Name>
Chloroacetic acid, iso-amyl ester

>  <Activity Label>
0

>  <SMILES>
CC(C)CCOC(CCl)=O

>  <Molecular Formula>
C7H13O2Cl

>  <InChIKey>
UZQBACINTKFBSX-UHFFFAOYSA-N

>  <Repellency>
Inactive

>  <Reference DOI>
10.3390/toxics11100837

>  <Target Organism>
Not applied

$$$$
Compound 176
Actelion Java MolfileCreator 2.0

  0  0  0  0  0  0              0 V3000
M  V30 BEGIN CTAB
M  V30 COUNTS 10 9 0 0 0
M  V30 BEGIN ATOM
M  V30 1 O 0.0 0.0 0.0 0
M  V30 2 C 0.0 1.4998 0.0 0
M  V30 3 C 1.299 2.2438 0.0 0
M  V30 4 C -1.299 2.2438 0.0 0
M  V30 5 C 2.5981 1.488 0.0 0
M  V30 6 C -2.5981 1.488 0.0 0
M  V30 7 C 3.8972 2.232 0.0 0
M  V30 8 C -3.8972 2.232 0.0 0
M  V30 9 C 5.1963 1.4762 0.0 0
M  V30 10 C -5.1963 1.4762 0.0 0
M  V30 END ATOM
M  V30 BEGIN BOND
M  V30 1 1 1 2
M  V30 2 1 2 3
M  V30 3 1 2 4
M  V30 4 1 3 5
M  V30 5 1 4 6
M  V30 6 1 5 7
M  V30 7 1 6 8
M  V30 8 1 7 9
M  V30 9 1 8 10
M  V30 END BOND
M  V30 END CTAB
M  END
>  <Molecule Name>
Di-n-butylcarbinol

>  <Activity Label>
0

>  <SMILES>
CCCCC(CCCC)O

>  <Molecular Formula>
C9H20O

>  <InChIKey>
FCBBRODPXVPZAH-UHFFFAOYSA-N

>  <Repellency>
Inactive

>  <Reference DOI>
10.3390/toxics11100837

>  <Target Organism>
Not applied

$$$$
Compound 177
Actelion Java MolfileCreator 2.0

  0  0  0  0  0  0              0 V3000
M  V30 BEGIN CTAB
M  V30 COUNTS 10 9 0 0 0
M  V30 BEGIN ATOM
M  V30 1 O 0.0 0.0 0.0 0
M  V30 2 C 0.0 -1.4992 0.0 0
M  V30 3 C 1.2985 -2.2547 0.0 0
M  V30 4 C -1.2985 -2.2547 0.0 0
M  V30 5 C 2.5971 -1.511 0.0 0
M  V30 6 C -2.5971 -1.511 0.0 0
M  V30 7 C 3.8956 -2.2665 0.0 0
M  V30 8 C 2.5971 -0.0118 0.0 0
M  V30 9 C -3.8956 -2.2665 0.0 0
M  V30 10 C -2.5971 -0.0118 0.0 0
M  V30 END ATOM
M  V30 BEGIN BOND
M  V30 1 2 1 2
M  V30 2 1 2 3
M  V30 3 1 2 4
M  V30 4 2 3 5
M  V30 5 2 4 6
M  V30 6 1 5 7
M  V30 7 1 5 8
M  V30 8 1 6 9
M  V30 9 1 6 10
M  V30 END BOND
M  V30 END CTAB
M  END
>  <Molecule Name>
Phorone

>  <Activity Label>
0

>  <SMILES>
CC(C)=CC(C=C(C)C)=O

>  <Molecular Formula>
C9H14O

>  <InChIKey>
MTZWHHIREPJPTG-UHFFFAOYSA-N

>  <Repellency>
Inactive

>  <Reference DOI>
10.3390/toxics11100837

>  <Target Organism>
Not applied

$$$$
Compound 178
Actelion Java MolfileCreator 2.0

  0  0  0  0  0  0              0 V3000
M  V30 BEGIN CTAB
M  V30 COUNTS 10 9 0 0 0
M  V30 BEGIN ATOM
M  V30 1 O 0.0 0.0 0.0 0
M  V30 2 C 0.0 -1.4992 0.0 0
M  V30 3 C 1.2985 -2.2547 0.0 0
M  V30 4 C -1.2985 -2.2547 0.0 0
M  V30 5 C 2.5971 -1.511 0.0 0
M  V30 6 C -2.5971 -1.511 0.0 0
M  V30 7 C 3.8956 -2.2665 0.0 0
M  V30 8 C 2.5971 -0.0118 0.0 0
M  V30 9 C -2.5971 -0.0118 0.0 0
M  V30 10 C -3.8956 -2.2665 0.0 0
M  V30 END ATOM
M  V30 BEGIN BOND
M  V30 1 2 1 2
M  V30 2 1 2 3
M  V30 3 1 2 4
M  V30 4 1 3 5
M  V30 5 1 4 6
M  V30 6 1 5 7
M  V30 7 1 5 8
M  V30 8 1 6 9
M  V30 9 1 6 10
M  V30 END BOND
M  V30 END CTAB
M  END
>  <Molecule Name>
Di-iso-butyl ketone

>  <Activity Label>
0

>  <SMILES>
CC(C)CC(CC(C)C)=O

>  <Molecular Formula>
C9H18O

>  <InChIKey>
PTTPXKJBFFKCEK-UHFFFAOYSA-N

>  <Repellency>
Inactive

>  <Reference DOI>
10.3390/toxics11100837

>  <Target Organism>
Not applied

$$$$
Compound 179
Actelion Java MolfileCreator 2.0

  0  0  0  0  0  0              0 V3000
M  V30 BEGIN CTAB
M  V30 COUNTS 10 9 0 0 0
M  V30 BEGIN ATOM
M  V30 1 O 0.0 0.0 0.0 0
M  V30 2 C 0.0 -1.4998 0.0 0
M  V30 3 C 1.299 -2.2556 0.0 0
M  V30 4 C -1.299 -2.2556 0.0 0
M  V30 5 C 2.0549 -0.9566 0.0 0
M  V30 6 C 2.5981 -3.0115 0.0 0
M  V30 7 C 0.555 -3.5547 0.0 0
M  V30 8 C -0.555 -3.5547 0.0 0
M  V30 9 C -2.5981 -2.9997 0.0 0
M  V30 10 C -2.0431 -0.9566 0.0 0
M  V30 END ATOM
M  V30 BEGIN BOND
M  V30 1 2 1 2
M  V30 2 1 2 3
M  V30 3 1 2 4
M  V30 4 1 3 5
M  V30 5 1 3 6
M  V30 6 1 3 7
M  V30 7 1 4 8
M  V30 8 1 4 9
M  V30 9 1 4 10
M  V30 END BOND
M  V30 END CTAB
M  END
>  <Molecule Name>
Hexamethylacetone

>  <Activity Label>
0

>  <SMILES>
CC(C)(C)C(C(C)(C)C)=O

>  <Molecular Formula>
C9H18O

>  <InChIKey>
UIQGEWJEWJMQSL-UHFFFAOYSA-N

>  <Repellency>
Inactive

>  <Reference DOI>
10.3390/toxics11100837

>  <Target Organism>
Not applied

$$$$
Compound 180
Actelion Java MolfileCreator 2.0

  0  0  0  0  0  0              0 V3000
M  V30 BEGIN CTAB
M  V30 COUNTS 10 9 0 0 0
M  V30 BEGIN ATOM
M  V30 1 O 0.0 0.0 0.0 0
M  V30 2 C 1.2988 -0.7438 0.0 0
M  V30 3 C 2.5976 -1.4995 0.0 0
M  V30 4 C 2.5976 0.0 0.0 0
M  V30 5 C 1.2988 -2.2434 0.0 0
M  V30 6 C 3.8964 -2.2552 0.0 0
M  V30 7 C 3.8964 -0.7556 0.0 0
M  V30 8 C 2.5976 1.4995 0.0 0
M  V30 9 C 2.5976 -2.999 0.0 0
M  V30 10 C 0.0 -2.9872 0.0 0
M  V30 END ATOM
M  V30 BEGIN BOND
M  V30 1 1 1 2
M  V30 2 1 2 3
M  V30 3 1 2 4
M  V30 4 1 2 5
M  V30 5 3 3 6
M  V30 6 1 4 7
M  V30 7 1 4 8
M  V30 8 1 5 9
M  V30 9 1 5 10
M  V30 END BOND
M  V30 END CTAB
M  END
>  <Molecule Name>
Di-iso-propyl ethynyl carbinol

>  <Activity Label>
0

>  <SMILES>
CC(C)C(C(C)C)(C#C)O

>  <Molecular Formula>
C9H16O

>  <InChIKey>
DIFXCBNNWBBNCA-UHFFFAOYSA-N

>  <Repellency>
Inactive

>  <Reference DOI>
10.3390/toxics11100837

>  <Target Organism>
Not applied

$$$$
Compound 181
Actelion Java MolfileCreator 2.0

  0  0  0  0  0  0              0 V3000
M  V30 BEGIN CTAB
M  V30 COUNTS 10 9 0 0 0
M  V30 BEGIN ATOM
M  V30 1 O 0.0 0.0 0.0 0
M  V30 2 C 0.0 -1.4995 0.0 0
M  V30 3 O -1.2988 -2.2552 0.0 0
M  V30 4 C 1.2988 -2.2552 0.0 0
M  V30 5 C -2.5976 -1.5113 0.0 0
M  V30 6 C 2.5976 -1.5113 0.0 0
M  V30 7 C -3.8964 -2.267 0.0 0
M  V30 8 C 3.8964 -2.267 0.0 0
M  V30 9 O 5.1952 -1.5231 0.0 0
M  V30 10 C 3.8964 -3.7665 0.0 0
M  V30 END ATOM
M  V30 BEGIN BOND
M  V30 1 2 1 2
M  V30 2 1 2 3
M  V30 3 1 2 4
M  V30 4 1 3 5
M  V30 5 1 4 6
M  V30 6 1 5 7
M  V30 7 1 6 8
M  V30 8 2 8 9
M  V30 9 1 8 10
M  V30 END BOND
M  V30 END CTAB
M  END
>  <Molecule Name>
Levulinic acid, ethyl ester

>  <Activity Label>
0

>  <SMILES>
CCOC(CCC(C)=O)=O

>  <Molecular Formula>
C7H12O3

>  <InChIKey>
GMEONFUTDYJSNV-UHFFFAOYSA-N

>  <Repellency>
Inactive

>  <Reference DOI>
10.3390/toxics11100837

>  <Target Organism>
Not applied

$$$$
Compound 182
Actelion Java MolfileCreator 2.0

  0  0  0  0  0  0              0 V3000
M  V30 BEGIN CTAB
M  V30 COUNTS 10 9 0 0 0
M  V30 BEGIN ATOM
M  V30 1 O 0.0 0.0 0.0 0
M  V30 2 C 0.0 1.4998 0.0 0
M  V30 3 O -1.299 2.2438 0.0 0
M  V30 4 C 1.299 2.2438 0.0 0
M  V30 5 C -2.5981 1.488 0.0 0
M  V30 6 C 2.5981 1.488 0.0 0
M  V30 7 O 3.8972 2.232 0.0 0
M  V30 8 C 5.1963 1.4762 0.0 0
M  V30 9 C 6.4954 2.2202 0.0 0
M  V30 10 C 7.7945 1.4644 0.0 0
M  V30 END ATOM
M  V30 BEGIN BOND
M  V30 1 2 1 2
M  V30 2 1 2 3
M  V30 3 1 2 4
M  V30 4 1 3 5
M  V30 5 1 4 6
M  V30 6 1 6 7
M  V30 7 1 7 8
M  V30 8 1 8 9
M  V30 9 1 9 10
M  V30 END BOND
M  V30 END CTAB
M  END
>  <Molecule Name>
beta-n-Propoxypropionic acid, methyl ester

>  <Activity Label>
0

>  <SMILES>
CCCOCCC(OC)=O

>  <Molecular Formula>
C7H14O3

>  <InChIKey>
DMHHINXESLPPMV-UHFFFAOYSA-N

>  <Repellency>
Inactive

>  <Reference DOI>
10.3390/toxics11100837

>  <Target Organism>
Not applied

$$$$
Compound 183
Actelion Java MolfileCreator 2.0

  0  0  0  0  0  0              0 V3000
M  V30 BEGIN CTAB
M  V30 COUNTS 10 9 0 0 0
M  V30 BEGIN ATOM
M  V30 1 O 0.0 0.0 0.0 0
M  V30 2 C 0.0 -1.4995 0.0 0
M  V30 3 O -1.2988 -2.2552 0.0 0
M  V30 4 C 1.2988 -2.2552 0.0 0 CFG=1
M  V30 5 C -2.5976 -1.5113 0.0 0
M  V30 6 O 2.5976 -1.5113 0.0 0
M  V30 7 C 1.2988 -3.7547 0.0 0
M  V30 8 C -3.8964 -2.267 0.0 0
M  V30 9 C -5.1952 -1.5231 0.0 0
M  V30 10 C -6.4941 -2.2788 0.0 0
M  V30 END ATOM
M  V30 BEGIN BOND
M  V30 1 2 1 2
M  V30 2 1 2 3
M  V30 3 1 2 4
M  V30 4 1 3 5
M  V30 5 1 4 6 CFG=1
M  V30 6 1 4 7
M  V30 7 1 5 8
M  V30 8 2 8 9 CFG=2
M  V30 9 1 9 10
M  V30 END BOND
M  V30 BEGIN COLLECTION
M  V30 MDLV30/STERAC1 ATOMS=(1 4)
M  V30 END COLLECTION
M  V30 END CTAB
M  END
>  <Molecule Name>
Lactic acid, crotyl ester

>  <Activity Label>
0

>  <SMILES>
CC(C(OCC=CC)=O)O

>  <Molecular Formula>
C7H12O3

>  <InChIKey>
LVQNETYCSPTNBN-UHFFFAOYSA-N

>  <Repellency>
Inactive

>  <Reference DOI>
10.3390/toxics11100837

>  <Target Organism>
Not applied

$$$$
Compound 184
Actelion Java MolfileCreator 2.0

  0  0  0  0  0  0              0 V3000
M  V30 BEGIN CTAB
M  V30 COUNTS 10 9 0 0 0
M  V30 BEGIN ATOM
M  V30 1 O 0.0 0.0 0.0 0
M  V30 2 C 0.0 1.5002 0.0 0
M  V30 3 O -1.2993 2.2443 0.0 0
M  V30 4 O 1.2993 2.2443 0.0 0
M  V30 5 C -2.5987 1.4883 0.0 0
M  V30 6 C 2.5987 1.4883 0.0 0
M  V30 7 C -3.8981 2.2325 0.0 0
M  V30 8 C 3.8981 2.2325 0.0 0
M  V30 9 C -5.1975 1.4765 0.0 0
M  V30 10 C -3.8981 3.7327 0.0 0
M  V30 END ATOM
M  V30 BEGIN BOND
M  V30 1 2 1 2
M  V30 2 1 2 3
M  V30 3 1 2 4
M  V30 4 1 3 5
M  V30 5 1 4 6
M  V30 6 1 5 7
M  V30 7 1 6 8
M  V30 8 2 7 9
M  V30 9 1 7 10
M  V30 END BOND
M  V30 END CTAB
M  END
>  <Molecule Name>
Carbonic acid, ethyl methallyl ester

>  <Activity Label>
0

>  <SMILES>
CCOC(OCC(C)=C)=O

>  <Molecular Formula>
C7H12O3

>  <InChIKey>
KHEYIKCJZVEFGN-UHFFFAOYSA-N

>  <Repellency>
Inactive

>  <Reference DOI>
10.3390/toxics11100837

>  <Target Organism>
Not applied

$$$$
Compound 185
Actelion Java MolfileCreator 2.0

  0  0  0  0  0  0              0 V3000
M  V30 BEGIN CTAB
M  V30 COUNTS 10 9 0 0 0
M  V30 BEGIN ATOM
M  V30 1 O 0.0 0.0 0.0 0
M  V30 2 C 0.0 1.4998 0.0 0
M  V30 3 O -1.299 2.2438 0.0 0
M  V30 4 C 1.299 2.2438 0.0 0
M  V30 5 C -2.5981 1.488 0.0 0
M  V30 6 C 2.5981 1.488 0.0 0
M  V30 7 C -3.8972 2.232 0.0 0
M  V30 8 O 3.8972 2.232 0.0 0
M  V30 9 C -5.1963 1.4762 0.0 0
M  V30 10 C 5.1963 1.4762 0.0 0
M  V30 END ATOM
M  V30 BEGIN BOND
M  V30 1 2 1 2
M  V30 2 1 2 3
M  V30 3 1 2 4
M  V30 4 1 3 5
M  V30 5 1 4 6
M  V30 6 1 5 7
M  V30 7 1 6 8
M  V30 8 2 7 9
M  V30 9 1 8 10
M  V30 END BOND
M  V30 END CTAB
M  END
>  <Molecule Name>
beta-Methoxypropionic acid, allyl ester

>  <Activity Label>
0

>  <SMILES>
COCCC(OCC=C)=O

>  <Molecular Formula>
C7H12O3

>  <InChIKey>
MXYTZNKZSBLEOE-UHFFFAOYSA-N

>  <Repellency>
Inactive

>  <Reference DOI>
10.3390/toxics11100837

>  <Target Organism>
Not applied

$$$$
Compound 186
Actelion Java MolfileCreator 2.0

  0  0  0  0  0  0              0 V3000
M  V30 BEGIN CTAB
M  V30 COUNTS 10 9 0 0 0
M  V30 BEGIN ATOM
M  V30 1 O 0.0 0.0 0.0 0
M  V30 2 C 0.0 1.5002 0.0 0
M  V30 3 O -1.2993 2.2443 0.0 0
M  V30 4 C 1.2993 2.2443 0.0 0
M  V30 5 C -2.5987 1.4883 0.0 0
M  V30 6 C 2.5987 1.4883 0.0 0
M  V30 7 C -3.8981 2.2325 0.0 0
M  V30 8 O 3.8981 2.2325 0.0 0
M  V30 9 C 2.5987 -0.0118 0.0 0
M  V30 10 C -5.1975 1.4765 0.0 0
M  V30 END ATOM
M  V30 BEGIN BOND
M  V30 1 2 1 2
M  V30 2 1 2 3
M  V30 3 1 2 4
M  V30 4 1 3 5
M  V30 5 1 4 6
M  V30 6 1 5 7
M  V30 7 2 6 8
M  V30 8 1 6 9
M  V30 9 2 7 10
M  V30 END BOND
M  V30 END CTAB
M  END
>  <Molecule Name>
Acetoacetic acid, allyl ester

>  <Activity Label>
0

>  <SMILES>
CC(CC(OCC=C)=O)=O

>  <Molecular Formula>
C7H10O3

>  <InChIKey>
AXLMPTNTPOWPLT-UHFFFAOYSA-N

>  <Repellency>
Inactive

>  <Reference DOI>
10.3390/toxics11100837

>  <Target Organism>
Not applied

$$$$
Compound 187
Actelion Java MolfileCreator 2.0

  0  0  0  0  0  0              0 V3000
M  V30 BEGIN CTAB
M  V30 COUNTS 10 9 0 0 0
M  V30 BEGIN ATOM
M  V30 1 O 0.0 0.0 0.0 0
M  V30 2 C 0.0 -1.4995 0.0 0
M  V30 3 O -1.2988 -2.2552 0.0 0
M  V30 4 C 1.2988 -2.2552 0.0 0
M  V30 5 C -2.5976 -1.5113 0.0 0
M  V30 6 C 2.5976 -1.5113 0.0 0
M  V30 7 C -3.8964 -2.267 0.0 0
M  V30 8 O 2.5976 -0.0118 0.0 0
M  V30 9 C 3.8964 -2.267 0.0 0
M  V30 10 C 5.1952 -1.5231 0.0 0
M  V30 END ATOM
M  V30 BEGIN BOND
M  V30 1 2 1 2
M  V30 2 1 2 3
M  V30 3 1 2 4
M  V30 4 1 3 5
M  V30 5 1 4 6
M  V30 6 1 5 7
M  V30 7 2 6 8
M  V30 8 1 6 9
M  V30 9 1 9 10
M  V30 END BOND
M  V30 END CTAB
M  END
>  <Molecule Name>
Methylacetoacetic acid, ethyl ester

>  <Activity Label>
0

>  <SMILES>
CCC(CC(OCC)=O)=O

>  <Molecular Formula>
C7H12O3

>  <InChIKey>
UDRCONFHWYGWFI-UHFFFAOYSA-N

>  <Repellency>
Inactive

>  <Reference DOI>
10.3390/toxics11100837

>  <Target Organism>
Not applied

$$$$
Compound 188
Actelion Java MolfileCreator 2.0

  0  0  0  0  0  0              0 V3000
M  V30 BEGIN CTAB
M  V30 COUNTS 10 9 0 0 0
M  V30 BEGIN ATOM
M  V30 1 O 0.0 0.0 0.0 0
M  V30 2 C -1.299 0.744 0.0 0
M  V30 3 C 1.299 0.744 0.0 0
M  V30 4 C -2.5981 -0.0118 0.0 0
M  V30 5 C 2.5981 -0.0118 0.0 0
M  V30 6 O -2.5981 -1.5116 0.0 0
M  V30 7 C -3.8972 0.7322 0.0 0
M  V30 8 O -5.1963 -0.0236 0.0 0
M  V30 9 C -6.4954 0.7204 0.0 0
M  V30 10 C -7.7945 -0.0354 0.0 0
M  V30 END ATOM
M  V30 BEGIN BOND
M  V30 1 1 1 2
M  V30 2 1 1 3
M  V30 3 1 2 4
M  V30 4 1 3 5
M  V30 5 1 4 6
M  V30 6 1 4 7
M  V30 7 1 7 8
M  V30 8 1 8 9
M  V30 9 1 9 10
M  V30 END BOND
M  V30 END CTAB
M  END
>  <Molecule Name>
1,3-Diethoxy-2-hydroxypropane

>  <Activity Label>
0

>  <SMILES>
CCOCC(COCC)O

>  <Molecular Formula>
C7H16O3

>  <InChIKey>
WIHIUTUAHOZVLE-UHFFFAOYSA-N

>  <Repellency>
Inactive

>  <Reference DOI>
10.3390/toxics11100837

>  <Target Organism>
Not applied

$$$$
Compound 189
Actelion Java MolfileCreator 2.0

  0  0  0  0  0  0              0 V3000
M  V30 BEGIN CTAB
M  V30 COUNTS 10 9 0 0 0
M  V30 BEGIN ATOM
M  V30 1 Cl 0.0 0.0 0.0 0
M  V30 2 C -1.3004 -0.7475 0.0 0
M  V30 3 C -2.6009 0.0 0.0 0
M  V30 4 O -3.9014 -0.7475 0.0 0
M  V30 5 C -5.2018 0.0 0.0 0
M  V30 6 C -6.5023 -0.7475 0.0 0
M  V30 7 O -7.8028 0.0 0.0 0
M  V30 8 C -9.1032 -0.7475 0.0 0
M  V30 9 C -10.4037 0.0 0.0 0
M  V30 10 O -11.7042 -0.7475 0.0 0
M  V30 END ATOM
M  V30 BEGIN BOND
M  V30 1 1 1 2
M  V30 2 1 2 3
M  V30 3 1 3 4
M  V30 4 1 4 5
M  V30 5 1 5 6
M  V30 6 1 6 7
M  V30 7 1 7 8
M  V30 8 1 8 9
M  V30 9 1 9 10
M  V30 END BOND
M  V30 END CTAB
M  END
>  <Molecule Name>
1-(2-Chloroethoxy)-2-(2-hydroxyethoxy)ethane

>  <Activity Label>
0

>  <SMILES>
OCCOCCOCCCl

>  <Molecular Formula>
C6H13O3Cl

>  <InChIKey>
KECMLGZOQMJIBM-UHFFFAOYSA-N

>  <Repellency>
Inactive

>  <Reference DOI>
10.3390/toxics11100837

>  <Target Organism>
Not applied

$$$$
Compound 190
Actelion Java MolfileCreator 2.0

  0  0  0  0  0  0              0 V3000
M  V30 BEGIN CTAB
M  V30 COUNTS 10 9 0 0 0
M  V30 BEGIN ATOM
M  V30 1 Cl 0.0 0.0 0.0 0
M  V30 2 C 1.2993 0.7441 0.0 0
M  V30 3 C 2.5987 -0.0118 0.0 0
M  V30 4 O 3.8981 0.7323 0.0 0
M  V30 5 C 5.1975 -0.0236 0.0 0
M  V30 6 O 5.1975 -1.5238 0.0 0
M  V30 7 C 6.4969 0.7205 0.0 0
M  V30 8 C 7.7963 -0.0354 0.0 0
M  V30 9 O 9.0957 0.7087 0.0 0
M  V30 10 C 7.7963 -1.5356 0.0 0
M  V30 END ATOM
M  V30 BEGIN BOND
M  V30 1 1 1 2
M  V30 2 1 2 3
M  V30 3 1 3 4
M  V30 4 1 4 5
M  V30 5 2 5 6
M  V30 6 1 5 7
M  V30 7 1 7 8
M  V30 8 2 8 9
M  V30 9 1 8 10
M  V30 END BOND
M  V30 END CTAB
M  END
>  <Molecule Name>
Acetoacetic acid, beta-chloroethyl ester

>  <Activity Label>
0

>  <SMILES>
CC(CC(OCCCl)=O)=O

>  <Molecular Formula>
C6H9O3Cl

>  <InChIKey>
JAEUQHNZRROYID-UHFFFAOYSA-N

>  <Repellency>
Inactive

>  <Reference DOI>
10.3390/toxics11100837

>  <Target Organism>
Not applied

$$$$
Compound 191
Actelion Java MolfileCreator 2.0

  0  0  0  0  0  0              0 V3000
M  V30 BEGIN CTAB
M  V30 COUNTS 10 9 0 0 0
M  V30 BEGIN ATOM
M  V30 1 O 0.0 0.0 0.0 0
M  V30 2 C 0.0 1.5008 0.0 0
M  V30 3 O -1.2999 2.2453 0.0 0
M  V30 4 C 1.2999 2.2453 0.0 0
M  V30 5 C -2.5999 1.489 0.0 0 CFG=2
M  V30 6 C -3.8998 0.7445 0.0 0
M  V30 7 C -2.5999 -0.0118 0.0 0
M  V30 8 C -3.8998 2.2453 0.0 0
M  V30 9 N -5.1998 0.0 0.0 0
M  V30 10 C -3.8998 -0.7563 0.0 0
M  V30 END ATOM
M  V30 BEGIN BOND
M  V30 1 2 1 2
M  V30 2 1 2 3
M  V30 3 1 2 4
M  V30 4 1 3 5
M  V30 5 1 5 6 CFG=1
M  V30 6 1 5 7
M  V30 7 1 5 8
M  V30 8 3 6 9
M  V30 9 1 7 10
M  V30 END BOND
M  V30 BEGIN COLLECTION
M  V30 MDLV30/STERAC1 ATOMS=(1 5)
M  V30 END COLLECTION
M  V30 END CTAB
M  END
>  <Molecule Name>
2-Acetoxy-2-cyanobutane

>  <Activity Label>
0

>  <SMILES>
CCC(C)(C#N)OC(C)=O

>  <Molecular Formula>
C7H11NO2

>  <InChIKey>
KDXFFTRVSGVZQW-UHFFFAOYSA-N

>  <Repellency>
Inactive

>  <Reference DOI>
10.3390/toxics11100837

>  <Target Organism>
Not applied

$$$$
Compound 192
Actelion Java MolfileCreator 2.0

  0  0  0  0  0  0              0 V3000
M  V30 BEGIN CTAB
M  V30 COUNTS 10 9 0 0 0
M  V30 BEGIN ATOM
M  V30 1 Cl 0.0 0.0 0.0 0
M  V30 2 C 1.299 0.744 0.0 0
M  V30 3 C 2.5981 -0.0118 0.0 0
M  V30 4 O 3.8972 0.7322 0.0 0
M  V30 5 C 5.1963 -0.0236 0.0 0
M  V30 6 O 5.1963 -1.5234 0.0 0
M  V30 7 N 6.4954 0.7204 0.0 0
M  V30 8 C 7.7945 -0.0354 0.0 0
M  V30 9 C 9.0936 0.7085 0.0 0
M  V30 10 Cl 10.3927 -0.0472 0.0 0
M  V30 END ATOM
M  V30 BEGIN BOND
M  V30 1 1 1 2
M  V30 2 1 2 3
M  V30 3 1 3 4
M  V30 4 1 4 5
M  V30 5 2 5 6
M  V30 6 1 5 7
M  V30 7 1 7 8
M  V30 8 1 8 9
M  V30 9 1 9 10
M  V30 END BOND
M  V30 END CTAB
M  END
>  <Molecule Name>
N-beta-Chloroethylcarbamic acid, beta-chloroethyl ester

>  <Activity Label>
0

>  <SMILES>
O=C(NCCCl)OCCCl

>  <Molecular Formula>
C5H9NO2Cl2

>  <InChIKey>
XIQADOQASLVHKK-UHFFFAOYSA-N

>  <Repellency>
Inactive

>  <Reference DOI>
10.3390/toxics11100837

>  <Target Organism>
Not applied

$$$$
Compound 193
Actelion Java MolfileCreator 2.0

  0  0  0  0  0  0              0 V3000
M  V30 BEGIN CTAB
M  V30 COUNTS 10 9 0 0 0
M  V30 BEGIN ATOM
M  V30 1 O 0.0 0.0 0.0 0
M  V30 2 C 0.0 1.4992 0.0 0
M  V30 3 N -1.2985 2.2429 0.0 0
M  V30 4 C 1.2985 2.2429 0.0 0
M  V30 5 C -2.597 1.4873 0.0 0
M  V30 6 O 2.597 1.4873 0.0 0
M  V30 7 C -3.8955 2.231 0.0 0
M  V30 8 C -3.3525 0.1888 0.0 0
M  V30 9 C -1.8415 0.1888 0.0 0
M  V30 10 O -5.194 1.4755 0.0 0
M  V30 END ATOM
M  V30 BEGIN BOND
M  V30 1 2 1 2
M  V30 2 1 2 3
M  V30 3 1 2 4
M  V30 4 1 3 5
M  V30 5 1 4 6
M  V30 6 1 5 7
M  V30 7 1 5 8
M  V30 8 1 5 9
M  V30 9 1 7 10
M  V30 END BOND
M  V30 END CTAB
M  END
>  <Molecule Name>
N-(1,1-Dimethyl-2-hydroxyethyl) hydroxyacetamide

>  <Activity Label>
0

>  <SMILES>
CC(C)(CO)NC(CO)=O

>  <Molecular Formula>
C6H13NO3

>  <InChIKey>
APEQQFQZNVXMMT-UHFFFAOYSA-N

>  <Repellency>
Inactive

>  <Reference DOI>
10.3390/toxics11100837

>  <Target Organism>
Not applied

$$$$
Compound 194
Actelion Java MolfileCreator 2.0

  0  0  0  0  0  0              0 V3000
M  V30 BEGIN CTAB
M  V30 COUNTS 10 9 0 0 0
M  V30 BEGIN ATOM
M  V30 1 O 0.0 0.0 0.0 0
M  V30 2 C -1.2993 0.7441 0.0 0
M  V30 3 C -2.5987 -0.0118 0.0 0
M  V30 4 N -3.8981 0.7323 0.0 0
M  V30 5 C -3.8981 2.2325 0.0 0
M  V30 6 C -5.1975 -0.0236 0.0 0
M  V30 7 C -2.5987 2.9767 0.0 0
M  V30 8 C -6.4969 0.7205 0.0 0
M  V30 9 O -2.5987 4.4769 0.0 0
M  V30 10 O -7.7963 -0.0354 0.0 0
M  V30 END ATOM
M  V30 BEGIN BOND
M  V30 1 1 1 2
M  V30 2 1 2 3
M  V30 3 1 3 4
M  V30 4 1 4 5
M  V30 5 1 4 6
M  V30 6 1 5 7
M  V30 7 1 6 8
M  V30 8 1 7 9
M  V30 9 1 8 10
M  V30 END BOND
M  V30 END CTAB
M  END
>  <Molecule Name>
Triethanolamine

>  <Activity Label>
0

>  <SMILES>
OCCN(CCO)CCO

>  <Molecular Formula>
C6H15NO3

>  <InChIKey>
GSEJCLTVZPLZKY-UHFFFAOYSA-N

>  <Repellency>
Inactive

>  <Reference DOI>
10.3390/toxics11100837

>  <Target Organism>
Not applied

$$$$
Compound 195
Actelion Java MolfileCreator 2.0

  0  0  0  0  0  0              0 V3000
M  V30 BEGIN CTAB
M  V30 COUNTS 10 9 0 0 0
M  V30 BEGIN ATOM
M  V30 1 O 0.0 0.0 0.0 0
M  V30 2 N 0.0 -1.4995 0.0 0 CHG=1
M  V30 3 O -1.2988 -2.2552 0.0 0 CHG=-1
M  V30 4 C 1.2988 -2.2552 0.0 0
M  V30 5 C 2.5977 -1.5113 0.0 0
M  V30 6 C 1.2988 -3.7548 0.0 0
M  V30 7 O 2.5977 -0.0118 0.0 0
M  V30 8 C 3.8965 -2.267 0.0 0
M  V30 9 C 5.1954 -1.5231 0.0 0
M  V30 10 C 3.8965 -3.7666 0.0 0
M  V30 END ATOM
M  V30 BEGIN BOND
M  V30 1 2 1 2
M  V30 2 1 2 3
M  V30 3 1 2 4
M  V30 4 1 4 5
M  V30 5 1 4 6
M  V30 6 1 5 7
M  V30 7 1 5 8
M  V30 8 1 8 9
M  V30 9 1 8 10
M  V30 END BOND
M  V30 END CTAB
M  END
>  <Molecule Name>
4-Methyl-2-nitro-3-pentanol

>  <Activity Label>
0

>  <SMILES>
CC(C)C(C(C)[N+]([O-])=O)O

>  <Molecular Formula>
C6H13NO3

>  <InChIKey>
LOCQZPLNYZAZHO-UHFFFAOYSA-N

>  <Repellency>
Inactive

>  <Reference DOI>
10.3390/toxics11100837

>  <Target Organism>
Not applied

$$$$
Compound 196
Actelion Java MolfileCreator 2.0

  0  0  0  0  0  0              0 V3000
M  V30 BEGIN CTAB
M  V30 COUNTS 10 11 0 0 0
M  V30 BEGIN ATOM
M  V30 1 C 0.0 0.0 0.0 0
M  V30 2 C 1.2988 -0.7439 0.0 0
M  V30 3 C 0.0 1.4996 0.0 0
M  V30 4 C -1.2988 -0.7439 0.0 0
M  V30 5 C 2.5977 0.0118 0.0 0
M  V30 6 C 1.2988 -2.2435 0.0 0
M  V30 7 C 1.2988 2.2553 0.0 0
M  V30 8 C -1.2988 -2.2435 0.0 0
M  V30 9 C 2.5977 1.5114 0.0 0
M  V30 10 C 0.0 -2.9992 0.0 0
M  V30 END ATOM
M  V30 BEGIN BOND
M  V30 1 2 1 2
M  V30 2 1 1 3
M  V30 3 1 1 4
M  V30 4 1 2 5
M  V30 5 1 2 6
M  V30 6 2 3 7
M  V30 7 1 4 8
M  V30 8 2 5 9
M  V30 9 1 6 10
M  V30 10 1 7 9
M  V30 11 1 8 10
M  V30 END BOND
M  V30 END CTAB
M  END
>  <Molecule Name>
Tetrahydronaphthalene

>  <Activity Label>
0

>  <SMILES>
C(CC1)Cc2c1cccc2

>  <Molecular Formula>
C10H12

>  <InChIKey>
CXWXQJXEFPUFDZ-UHFFFAOYSA-N

>  <Repellency>
Inactive

>  <Reference DOI>
10.3390/toxics11100837

>  <Target Organism>
Not applied

$$$$
Compound 197
Actelion Java MolfileCreator 2.0

  0  0  0  0  0  0              0 V3000
M  V30 BEGIN CTAB
M  V30 COUNTS 10 11 0 0 0
M  V30 BEGIN ATOM
M  V30 1 C 0.0 0.0 0.0 0
M  V30 2 C 1.2988 -0.7439 0.0 0
M  V30 3 C -1.2988 -0.7439 0.0 0
M  V30 4 C 0.0 1.4996 0.0 0
M  V30 5 C 1.2988 -2.2435 0.0 0
M  V30 6 C 2.5977 0.0118 0.0 0
M  V30 7 C -1.2988 -2.2435 0.0 0
M  V30 8 C 1.2988 2.2553 0.0 0
M  V30 9 C 0.0 -2.9992 0.0 0
M  V30 10 C 2.5977 1.5114 0.0 0
M  V30 END ATOM
M  V30 BEGIN BOND
M  V30 1 1 1 2
M  V30 2 1 1 3
M  V30 3 1 1 4
M  V30 4 1 2 5
M  V30 5 1 2 6
M  V30 6 1 3 7
M  V30 7 1 4 8
M  V30 8 1 5 9
M  V30 9 1 6 10
M  V30 10 1 7 9
M  V30 11 1 8 10
M  V30 END BOND
M  V30 END CTAB
M  END
>  <Molecule Name>
Decahydronaphthalene

>  <Activity Label>
0

>  <SMILES>
C(CC1)CC2C1CCCC2

>  <Molecular Formula>
C10H18

>  <InChIKey>
NNBZCPXTIHJBJL-UHFFFAOYSA-N

>  <Repellency>
Inactive

>  <Reference DOI>
10.3390/toxics11100837

>  <Target Organism>
Not applied

$$$$
Compound 198
Actelion Java MolfileCreator 2.0

  0  0  0  0  0  0              0 V3000
M  V30 BEGIN CTAB
M  V30 COUNTS 10 11 0 0 0
M  V30 BEGIN ATOM
M  V30 1 O 0.0 0.0 0.0 0
M  V30 2 C 1.2998 0.7444 0.0 0
M  V30 3 C 0.0 -1.5007 0.0 0
M  V30 4 C 2.5996 0.0 0.0 0
M  V30 5 C 1.2998 2.2451 0.0 0
M  V30 6 C 1.2998 -2.2569 0.0 0
M  V30 7 O 2.5996 -1.5007 0.0 0
M  V30 8 C 3.8994 0.7444 0.0 0
M  V30 9 C 2.5996 2.9895 0.0 0
M  V30 10 C 3.8994 2.2451 0.0 0
M  V30 END ATOM
M  V30 BEGIN BOND
M  V30 1 1 1 2
M  V30 2 1 1 3
M  V30 3 2 2 4
M  V30 4 1 2 5
M  V30 5 1 3 6
M  V30 6 1 4 7
M  V30 7 1 4 8
M  V30 8 2 5 9
M  V30 9 2 8 10
M  V30 10 1 6 7
M  V30 11 1 9 10
M  V30 END BOND
M  V30 END CTAB
M  END
>  <Molecule Name>
1,4-Benzodioxan

>  <Activity Label>
0

>  <SMILES>
C1Oc(cccc2)c2OC1

>  <Molecular Formula>
C8H8O2

>  <InChIKey>
BNBQRQQYDMDJAH-UHFFFAOYSA-N

>  <Repellency>
Inactive

>  <Reference DOI>
10.3390/toxics11100837

>  <Target Organism>
Not applied

$$$$
Compound 199
Actelion Java MolfileCreator 2.0

  0  0  0  0  0  0              0 V3000
M  V30 BEGIN CTAB
M  V30 COUNTS 11 12 0 0 0
M  V30 BEGIN ATOM
M  V30 1 Br 0.0 0.0 0.0 0
M  V30 2 C -1.2982 -0.7553 0.0 0
M  V30 3 C -1.2982 -2.2542 0.0 0
M  V30 4 C -2.5965 0.0 0.0 0
M  V30 5 C -2.5965 -2.9978 0.0 0
M  V30 6 C 0.0 -3.0096 0.0 0
M  V30 7 C -3.8948 -0.7435 0.0 0
M  V30 8 C -3.8948 -2.2542 0.0 0
M  V30 9 C -2.5965 -4.4967 0.0 0
M  V30 10 C 0.0 -4.5085 0.0 0
M  V30 11 C -1.2982 -5.252 0.0 0
M  V30 END ATOM
M  V30 BEGIN BOND
M  V30 1 1 1 2
M  V30 2 1 2 3
M  V30 3 2 2 4
M  V30 4 2 3 5
M  V30 5 1 3 6
M  V30 6 1 4 7
M  V30 7 1 5 8
M  V30 8 1 5 9
M  V30 9 2 6 10
M  V30 10 2 9 11
M  V30 11 2 7 8
M  V30 12 1 10 11
M  V30 END BOND
M  V30 END CTAB
M  END
>  <Molecule Name>
1-Bromonaphthalene

>  <Activity Label>
0

>  <SMILES>
Brc1cccc2c1cccc2

>  <Molecular Formula>
C10H7Br

>  <InChIKey>
DLKQHBOKULLWDQ-UHFFFAOYSA-N

>  <Repellency>
Inactive

>  <Reference DOI>
10.3390/toxics11100837

>  <Target Organism>
Not applied

$$$$
Compound 200
Actelion Java MolfileCreator 2.0

  0  0  0  0  0  0              0 V3000
M  V30 BEGIN CTAB
M  V30 COUNTS 11 12 0 0 0
M  V30 BEGIN ATOM
M  V30 1 O 0.0 0.0 0.0 0
M  V30 2 C -1.2168 -0.886 0.0 0
M  V30 3 C -1.2168 -2.3864 0.0 0 CFG=2
M  V30 4 C -2.6463 -0.4253 0.0 0
M  V30 5 C -2.6463 -2.8472 0.0 0 CFG=2
M  V30 6 C 0.0 -3.2725 0.0 0
M  V30 7 C -3.5324 -1.6421 0.0 0 CFG=1
M  V30 8 C -4.1349 -3.0007 0.0 0
M  V30 9 C -4.8319 -0.8978 0.0 0
M  V30 10 C -4.8319 0.6025 0.0 0
M  V30 11 C -6.1315 -1.6539 0.0 0
M  V30 END ATOM
M  V30 BEGIN BOND
M  V30 1 2 1 2
M  V30 2 1 2 3
M  V30 3 1 2 4
M  V30 4 1 3 5
M  V30 5 1 3 6 CFG=1
M  V30 6 1 4 7
M  V30 7 1 5 8 CFG=1
M  V30 8 1 7 9 CFG=3
M  V30 9 1 9 10
M  V30 10 1 9 11
M  V30 11 1 5 7
M  V30 12 1 7 8
M  V30 END BOND
M  V30 BEGIN COLLECTION
M  V30 MDLV30/STEABS ATOMS=(3 3 5 7)
M  V30 END COLLECTION
M  V30 END CTAB
M  END
>  <Molecule Name>
d-beta-Thujone

>  <Activity Label>
0

>  <SMILES>
CC(C)[C@](C1)(C2)[C@H]1[C@H](C)C2=O

>  <Molecular Formula>
C10H16O

>  <InChIKey>
USMNOWBWPHYOEA-XKSSXDPKSA-N

>  <Repellency>
Inactive

>  <Reference DOI>
10.3390/toxics11100837

>  <Target Organism>
Not applied

$$$$
Compound 201
Actelion Java MolfileCreator 2.0

  0  0  0  0  0  0              0 V3000
M  V30 BEGIN CTAB
M  V30 COUNTS 11 12 0 0 0
M  V30 BEGIN ATOM
M  V30 1 O 0.0 0.0 0.0 0
M  V30 2 C -1.266 0.7385 0.0 0
M  V30 3 C -2.5452 0.0131 0.0 0
M  V30 4 C -1.266 2.2155 0.0 0
M  V30 5 C -1.8199 1.688 0.0 0
M  V30 6 C -3.8113 0.7385 0.0 0
M  V30 7 C -2.875 -1.4243 0.0 0
M  V30 8 C -2.5452 2.9541 0.0 0
M  V30 9 C -0.2241 3.2706 0.0 0
M  V30 10 C 0.0 1.477 0.0 0
M  V30 11 C -3.8113 2.2155 0.0 0
M  V30 END ATOM
M  V30 BEGIN BOND
M  V30 1 2 1 2
M  V30 2 1 2 3
M  V30 3 1 2 4
M  V30 4 1 3 5
M  V30 5 1 3 6
M  V30 6 1 3 7
M  V30 7 1 4 8
M  V30 8 1 4 9
M  V30 9 1 4 10
M  V30 10 1 6 11
M  V30 11 1 5 8
M  V30 12 1 8 11
M  V30 END BOND
M  V30 END CTAB
M  END
>  <Molecule Name>
Fenchone

>  <Activity Label>
0

>  <SMILES>
CC(C)(C1CC2(C)CC1)C2=O

>  <Molecular Formula>
C10H16O

>  <InChIKey>
LHXDLQBQYFFVNW-UHFFFAOYSA-N

>  <Repellency>
Inactive

>  <Reference DOI>
10.3390/toxics11100837

>  <Target Organism>
Not applied

$$$$
Compound 202
Actelion Java MolfileCreator 2.0

  0  0  0  0  0  0              0 V3000
M  V30 BEGIN CTAB
M  V30 COUNTS 11 12 0 0 0
M  V30 BEGIN ATOM
M  V30 1 O 0.0 0.0 0.0 0
M  V30 2 C 0.0 1.4353 0.0 0
M  V30 3 C -1.2404 2.1441 0.0 0
M  V30 4 C 1.01 2.4454 0.0 0
M  V30 5 C -0.9391 4.3946 0.0 0
M  V30 6 C -2.6226 1.772 0.0 0
M  V30 7 C -2.2505 1.1341 0.0 0
M  V30 8 C -0.2303 3.1542 0.0 0
M  V30 9 C 2.0201 3.4554 0.0 0
M  V30 10 C 2.3922 2.0732 0.0 0
M  V30 11 C -1.6125 2.7821 0.0 0
M  V30 END ATOM
M  V30 BEGIN BOND
M  V30 1 1 1 2
M  V30 2 1 2 3
M  V30 3 1 2 4
M  V30 4 1 3 5
M  V30 5 1 3 6
M  V30 6 1 3 7
M  V30 7 1 4 8
M  V30 8 1 4 9
M  V30 9 1 4 10
M  V30 10 1 6 11
M  V30 11 1 5 8
M  V30 12 1 8 11
M  V30 END BOND
M  V30 END CTAB
M  END
>  <Molecule Name>
Fenchyl alcohol

>  <Activity Label>
0

>  <SMILES>
CC(C)(C1CC2(C)CC1)C2O

>  <Molecular Formula>
C10H18O

>  <InChIKey>
IAIHUHQCLTYTSF-UHFFFAOYSA-N

>  <Repellency>
Inactive

>  <Reference DOI>
10.3390/toxics11100837

>  <Target Organism>
Not applied

$$$$
Compound 203
Actelion Java MolfileCreator 2.0

  0  0  0  0  0  0              0 V3000
M  V30 BEGIN CTAB
M  V30 COUNTS 11 12 0 0 0
M  V30 BEGIN ATOM
M  V30 1 O 0.0 0.0 0.0 0
M  V30 2 C -1.3951 0.799 0.0 0 CFG=2
M  V30 3 C 0.0 -1.6107 0.0 0
M  V30 4 C -2.7902 0.0 0.0 0
M  V30 5 C -1.9785 -0.2282 0.0 0
M  V30 6 C -1.3951 2.4097 0.0 0
M  V30 7 C -1.3951 -2.4097 0.0 0 CFG=1
M  V30 8 C 1.6107 -1.6107 0.0 0
M  V30 9 C 0.799 -3.0058 0.0 0
M  V30 10 C -2.7902 -1.6107 0.0 0
M  V30 11 C -1.9785 -1.3951 0.0 0
M  V30 END ATOM
M  V30 BEGIN BOND
M  V30 1 1 1 2
M  V30 2 1 1 3
M  V30 3 1 2 4
M  V30 4 1 2 5
M  V30 5 1 2 6 CFG=1
M  V30 6 1 3 7
M  V30 7 1 3 8
M  V30 8 1 3 9
M  V30 9 1 4 10
M  V30 10 1 5 11
M  V30 11 1 7 10 CFG=3
M  V30 12 1 7 11
M  V30 END BOND
M  V30 BEGIN COLLECTION
M  V30 MDLV30/STEABS ATOMS=(2 2 7)
M  V30 END COLLECTION
M  V30 END CTAB
M  END
>  <Molecule Name>
Eucalyptol

>  <Activity Label>
0

>  <SMILES>
CC1(C)O[C@]2(C)CC[C@H]1CC2

>  <Molecular Formula>
C10H18O

>  <InChIKey>
WEEGYLXZBRQIMU-WAAGHKOSSA-N

>  <Repellency>
Inactive

>  <Reference DOI>
10.3390/toxics11100837

>  <Target Organism>
Not applied

$$$$
Compound 204
Actelion Java MolfileCreator 2.0

  0  0  0  0  0  0              0 V3000
M  V30 BEGIN CTAB
M  V30 COUNTS 11 12 0 0 0
M  V30 BEGIN ATOM
M  V30 1 O 0.0 0.0 0.0 0
M  V30 2 C -1.0034 -1.1096 0.0 0
M  V30 3 C 1.3693 -0.6138 0.0 0 CFG=2
M  V30 4 C -0.2479 -2.4081 0.0 0
M  V30 5 C -2.5026 -1.1096 0.0 0
M  V30 6 C 1.2158 -2.1012 0.0 0
M  V30 7 C 2.6678 0.1416 0.0 0
M  V30 8 C -1.0034 -3.7067 0.0 0
M  V30 9 C -3.2581 -2.4081 0.0 0
M  V30 10 C -2.5026 -3.7067 0.0 0
M  V30 11 C -3.2581 -5.0052 0.0 0
M  V30 END ATOM
M  V30 BEGIN BOND
M  V30 1 1 1 2
M  V30 2 1 1 3
M  V30 3 2 2 4
M  V30 4 1 2 5
M  V30 5 1 3 6
M  V30 6 1 3 7 CFG=1
M  V30 7 1 4 8
M  V30 8 2 5 9
M  V30 9 2 8 10
M  V30 10 1 10 11
M  V30 11 1 4 6
M  V30 12 1 9 10
M  V30 END BOND
M  V30 BEGIN COLLECTION
M  V30 MDLV30/STERAC1 ATOMS=(1 3)
M  V30 END COLLECTION
M  V30 END CTAB
M  END
>  <Molecule Name>
2,5-Dimethyl-2,3-dihydrobenzofuran

>  <Activity Label>
0

>  <SMILES>
CC(C1)Oc2c1cc(C)cc2

>  <Molecular Formula>
C10H12O

>  <InChIKey>
SAONKSARTGRFQG-UHFFFAOYSA-N

>  <Repellency>
Inactive

>  <Reference DOI>
10.3390/toxics11100837

>  <Target Organism>
Not applied

$$$$
Compound 205
Actelion Java MolfileCreator 2.0

  0  0  0  0  0  0              0 V3000
M  V30 BEGIN CTAB
M  V30 COUNTS 11 12 0 0 0
M  V30 BEGIN ATOM
M  V30 1 O 0.0 0.0 0.0 0
M  V30 2 C -1.0037 -1.11 0.0 0
M  V30 3 C 1.3698 -0.614 0.0 0
M  V30 4 C -2.5034 -1.11 0.0 0
M  V30 5 C -0.2597 -2.409 0.0 0
M  V30 6 C 1.2163 -2.1019 0.0 0
M  V30 7 C 2.6688 0.1417 0.0 0
M  V30 8 C -3.2592 -2.409 0.0 0
M  V30 9 C -3.2592 0.1889 0.0 0
M  V30 10 C -1.0155 -3.7079 0.0 0
M  V30 11 C -2.5034 -3.7079 0.0 0
M  V30 END ATOM
M  V30 BEGIN BOND
M  V30 1 1 1 2
M  V30 2 1 1 3
M  V30 3 2 2 4
M  V30 4 1 2 5
M  V30 5 2 3 6
M  V30 6 1 3 7
M  V30 7 1 4 8
M  V30 8 1 4 9
M  V30 9 2 5 10
M  V30 10 2 8 11
M  V30 11 1 5 6
M  V30 12 1 10 11
M  V30 END BOND
M  V30 END CTAB
M  END
>  <Molecule Name>
2,7-Dimethylcoumarone

>  <Activity Label>
0

>  <SMILES>
Cc1cc2cccc(C)c2[o]1

>  <Molecular Formula>
C10H10O

>  <InChIKey>
VEUMMZPESXCKAI-UHFFFAOYSA-N

>  <Repellency>
Inactive

>  <Reference DOI>
10.3390/toxics11100837

>  <Target Organism>
Not applied

$$$$
Compound 206
Actelion Java MolfileCreator 2.0

  0  0  0  0  0  0              0 V3000
M  V30 BEGIN CTAB
M  V30 COUNTS 11 12 0 0 0
M  V30 BEGIN ATOM
M  V30 1 N 0.0 0.0 0.0 0
M  V30 2 C 1.2998 0.7444 0.0 0
M  V30 3 C -1.3707 0.6144 0.0 0
M  V30 4 C -0.1536 -1.4888 0.0 0
M  V30 5 C 2.5996 -0.0118 0.0 0
M  V30 6 C 1.2998 2.2451 0.0 0
M  V30 7 C -2.3751 -0.4962 0.0 0
M  V30 8 C -1.6188 -1.796 0.0 0
M  V30 9 C 3.8994 0.7326 0.0 0
M  V30 10 C 2.5996 2.9895 0.0 0
M  V30 11 C 3.8994 2.2333 0.0 0
M  V30 END ATOM
M  V30 BEGIN BOND
M  V30 1 1 1 2
M  V30 2 1 1 3
M  V30 3 1 1 4
M  V30 4 2 2 5
M  V30 5 1 2 6
M  V30 6 2 3 7
M  V30 7 2 4 8
M  V30 8 1 5 9
M  V30 9 2 6 10
M  V30 10 2 9 11
M  V30 11 1 7 8
M  V30 12 1 10 11
M  V30 END BOND
M  V30 END CTAB
M  END
>  <Molecule Name>
N-Phenylpyrrole

>  <Activity Label>
0

>  <SMILES>
c(cc1)c[n]1-c1ccccc1

>  <Molecular Formula>
C10H9N

>  <InChIKey>
GEZGAZKEOUKLBR-UHFFFAOYSA-N

>  <Repellency>
Inactive

>  <Reference DOI>
10.3390/toxics11100837

>  <Target Organism>
Not applied

$$$$
Compound 207
Actelion Java MolfileCreator 2.0

  0  0  0  0  0  0              0 V3000
M  V30 BEGIN CTAB
M  V30 COUNTS 11 10 0 0 0
M  V30 BEGIN ATOM
M  V30 1 O 0.0 0.0 0.0 0
M  V30 2 C 0.0 -1.4995 0.0 0
M  V30 3 O -1.2988 -2.2552 0.0 0
M  V30 4 C 1.2988 -2.2552 0.0 0
M  V30 5 C -2.5977 -1.5114 0.0 0
M  V30 6 C 2.5977 -1.5114 0.0 0
M  V30 7 C 1.2988 -3.7548 0.0 0
M  V30 8 C -3.8965 -2.2671 0.0 0
M  V30 9 O -3.8965 -3.7666 0.0 0
M  V30 10 O -5.1954 -1.5232 0.0 0
M  V30 11 C -6.4943 -2.2789 0.0 0
M  V30 END ATOM
M  V30 BEGIN BOND
M  V30 1 2 1 2
M  V30 2 1 2 3
M  V30 3 1 2 4
M  V30 4 1 3 5
M  V30 5 2 4 6
M  V30 6 1 4 7
M  V30 7 1 5 8
M  V30 8 2 8 9
M  V30 9 1 8 10
M  V30 10 1 10 11
M  V30 END BOND
M  V30 END CTAB
M  END
>  <Molecule Name>
Methacryloxyacetic acid, methyl ester

>  <Activity Label>
0

>  <SMILES>
CC(C(OCC(OC)=O)=O)=C

>  <Molecular Formula>
C7H10O4

>  <InChIKey>
QFRDYGWJZGSWIJ-UHFFFAOYSA-N

>  <Repellency>
Inactive

>  <Reference DOI>
10.3390/toxics11100837

>  <Target Organism>
Not applied

$$$$
Compound 208
Actelion Java MolfileCreator 2.0

  0  0  0  0  0  0              0 V3000
M  V30 BEGIN CTAB
M  V30 COUNTS 11 10 0 0 0
M  V30 BEGIN ATOM
M  V30 1 O 0.0 0.0 0.0 0
M  V30 2 C 0.0 1.4998 0.0 0
M  V30 3 O -1.2991 2.2439 0.0 0
M  V30 4 C 1.2991 2.2439 0.0 0
M  V30 5 C -2.5982 1.488 0.0 0
M  V30 6 C 2.5982 1.488 0.0 0
M  V30 7 C 3.8973 2.232 0.0 0
M  V30 8 C 5.1964 1.4762 0.0 0
M  V30 9 C 6.4955 2.2202 0.0 0
M  V30 10 O 7.7946 1.4644 0.0 0
M  V30 11 O 6.4955 3.7201 0.0 0
M  V30 END ATOM
M  V30 BEGIN BOND
M  V30 1 2 1 2
M  V30 2 1 2 3
M  V30 3 1 2 4
M  V30 4 1 3 5
M  V30 5 1 4 6
M  V30 6 1 6 7
M  V30 7 1 7 8
M  V30 8 1 8 9
M  V30 9 2 9 10
M  V30 10 1 9 11
M  V30 END BOND
M  V30 END CTAB
M  END
>  <Molecule Name>
Adipic acid, methyl hydrogen ester

>  <Activity Label>
0

>  <SMILES>
COC(CCCCC(O)=O)=O

>  <Molecular Formula>
C7H12O4

>  <InChIKey>
UOBSVARXACCLLH-UHFFFAOYSA-N

>  <Repellency>
Inactive

>  <Reference DOI>
10.3390/toxics11100837

>  <Target Organism>
Not applied

$$$$
Compound 209
Actelion Java MolfileCreator 2.0

  0  0  0  0  0  0              0 V3000
M  V30 BEGIN CTAB
M  V30 COUNTS 11 10 0 0 0
M  V30 BEGIN ATOM
M  V30 1 O 0.0 0.0 0.0 0
M  V30 2 C 0.0 1.5001 0.0 0
M  V30 3 O -1.2993 2.2443 0.0 0
M  V30 4 C 1.2993 2.2443 0.0 0 CFG=1
M  V30 5 C -2.5987 1.4883 0.0 0
M  V30 6 O 2.5987 1.4883 0.0 0
M  V30 7 C 1.2993 3.7445 0.0 0
M  V30 8 C 3.8981 2.2325 0.0 0
M  V30 9 O 3.8981 3.7327 0.0 0
M  V30 10 C 5.1974 1.4765 0.0 0
M  V30 11 C 6.4968 2.2207 0.0 0
M  V30 END ATOM
M  V30 BEGIN BOND
M  V30 1 2 1 2
M  V30 2 1 2 3
M  V30 3 1 2 4
M  V30 4 1 3 5
M  V30 5 1 4 6
M  V30 6 1 4 7 CFG=3
M  V30 7 1 6 8
M  V30 8 2 8 9
M  V30 9 1 8 10
M  V30 10 1 10 11
M  V30 END BOND
M  V30 BEGIN COLLECTION
M  V30 MDLV30/STERAC1 ATOMS=(1 4)
M  V30 END COLLECTION
M  V30 END CTAB
M  END
>  <Molecule Name>
alpha-Propionoxypropionic acid, methyl ester

>  <Activity Label>
0

>  <SMILES>
CCC(OC(C)C(OC)=O)=O

>  <Molecular Formula>
C7H12O4

>  <InChIKey>
QCHIRICIDKIMSH-UHFFFAOYSA-N

>  <Repellency>
Inactive

>  <Reference DOI>
10.3390/toxics11100837

>  <Target Organism>
Not applied

$$$$
Compound 210
Actelion Java MolfileCreator 2.0

  0  0  0  0  0  0              0 V3000
M  V30 BEGIN CTAB
M  V30 COUNTS 11 10 0 0 0
M  V30 BEGIN ATOM
M  V30 1 O 0.0 0.0 0.0 0
M  V30 2 C 0.0 1.4975 0.0 0
M  V30 3 O -1.297 2.2521 0.0 0
M  V30 4 C 1.297 2.2521 0.0 0 CFG=1
M  V30 5 C -2.5941 1.4975 0.0 0
M  V30 6 O 2.5941 1.4975 0.0 0
M  V30 7 C 1.297 3.7496 0.0 0
M  V30 8 C -3.8911 2.2521 0.0 0
M  V30 9 O -5.1882 1.4975 0.0 0
M  V30 10 C -6.4852 2.2521 0.0 0
M  V30 11 C -7.7823 1.4975 0.0 0
M  V30 END ATOM
M  V30 BEGIN BOND
M  V30 1 2 1 2
M  V30 2 1 2 3
M  V30 3 1 2 4
M  V30 4 1 3 5
M  V30 5 1 4 6 CFG=3
M  V30 6 1 4 7
M  V30 7 1 5 8
M  V30 8 1 8 9
M  V30 9 1 9 10
M  V30 10 1 10 11
M  V30 END BOND
M  V30 BEGIN COLLECTION
M  V30 MDLV30/STERAC1 ATOMS=(1 4)
M  V30 END COLLECTION
M  V30 END CTAB
M  END
>  <Molecule Name>
Lactic acid, beta-ethoxyethyl ester

>  <Activity Label>
0

>  <SMILES>
CCOCCOC(C(C)O)=O

>  <Molecular Formula>
C7H14O4

>  <InChIKey>
WWLJGQOZMKGWOW-UHFFFAOYSA-N

>  <Repellency>
Inactive

>  <Reference DOI>
10.3390/toxics11100837

>  <Target Organism>
Not applied

$$$$
Compound 211
Actelion Java MolfileCreator 2.0

  0  0  0  0  0  0              0 V3000
M  V30 BEGIN CTAB
M  V30 COUNTS 11 10 0 0 0
M  V30 BEGIN ATOM
M  V30 1 O 0.0 0.0 0.0 0
M  V30 2 C 0.0 -1.4992 0.0 0
M  V30 3 O 1.2985 -2.2548 0.0 0
M  V30 4 C -1.2985 -2.2548 0.0 0
M  V30 5 C 2.5971 -1.511 0.0 0
M  V30 6 C -2.5971 -1.511 0.0 0
M  V30 7 C 3.8957 -2.2666 0.0 0
M  V30 8 O -2.5971 -0.0118 0.0 0
M  V30 9 O -3.8957 -2.2666 0.0 0
M  V30 10 C -5.1943 -1.5228 0.0 0
M  V30 11 C -6.4929 -2.2784 0.0 0
M  V30 END ATOM
M  V30 BEGIN BOND
M  V30 1 2 1 2
M  V30 2 1 2 3
M  V30 3 1 2 4
M  V30 4 1 3 5
M  V30 5 1 4 6
M  V30 6 1 5 7
M  V30 7 2 6 8
M  V30 8 1 6 9
M  V30 9 1 9 10
M  V30 10 1 10 11
M  V30 END BOND
M  V30 END CTAB
M  END
>  <Molecule Name>
Malonic acid, diethyl ester

>  <Activity Label>
0

>  <SMILES>
CCOC(CC(OCC)=O)=O

>  <Molecular Formula>
C7H12O4

>  <InChIKey>
IYXGSMUGOJNHAZ-UHFFFAOYSA-N

>  <Repellency>
Inactive

>  <Reference DOI>
10.3390/toxics11100837

>  <Target Organism>
Not applied

$$$$
Compound 212
Actelion Java MolfileCreator 2.0

  0  0  0  0  0  0              0 V3000
M  V30 BEGIN CTAB
M  V30 COUNTS 11 10 0 0 0
M  V30 BEGIN ATOM
M  V30 1 O 0.0 0.0 0.0 0
M  V30 2 C 0.0 1.5004 0.0 0
M  V30 3 C -1.2996 2.2447 0.0 0
M  V30 4 C 1.2996 2.2447 0.0 0
M  V30 5 O -2.5992 1.4886 0.0 0
M  V30 6 C -1.2996 3.7452 0.0 0
M  V30 7 C 2.5992 1.4886 0.0 0
M  V30 8 C 3.8988 2.2329 0.0 0
M  V30 9 C 3.1545 3.5325 0.0 0
M  V30 10 C 5.1984 2.9772 0.0 0
M  V30 11 C 4.6549 0.9333 0.0 0
M  V30 END ATOM
M  V30 BEGIN BOND
M  V30 1 2 1 2
M  V30 2 1 2 3
M  V30 3 1 2 4
M  V30 4 2 3 5
M  V30 5 1 3 6
M  V30 6 1 4 7
M  V30 7 1 7 8
M  V30 8 1 8 9
M  V30 9 1 8 10
M  V30 10 1 8 11
M  V30 END BOND
M  V30 END CTAB
M  END
>  <Molecule Name>
Acetyl neo-pentylmethyl ketone

>  <Activity Label>
0

>  <SMILES>
CC(C)(C)CCC(C(C)=O)=O

>  <Molecular Formula>
C9H16O2

>  <InChIKey>
VJDSJOVJJWKZPU-UHFFFAOYSA-N

>  <Repellency>
Inactive

>  <Reference DOI>
10.3390/toxics11100837

>  <Target Organism>
Not applied

$$$$
Compound 213
Actelion Java MolfileCreator 2.0

  0  0  0  0  0  0              0 V3000
M  V30 BEGIN CTAB
M  V30 COUNTS 11 10 0 0 0
M  V30 BEGIN ATOM
M  V30 1 O 0.0 0.0 0.0 0
M  V30 2 C 0.0 -1.4995 0.0 0
M  V30 3 O -1.2988 -2.2552 0.0 0
M  V30 4 C 1.2988 -2.2552 0.0 0
M  V30 5 C -2.5976 -1.5113 0.0 0
M  V30 6 C 2.5976 -1.5113 0.0 0
M  V30 7 C -3.8964 -2.267 0.0 0
M  V30 8 C 3.8964 -2.267 0.0 0
M  V30 9 C -5.1953 -1.5231 0.0 0
M  V30 10 C 5.1953 -1.5231 0.0 0
M  V30 11 C -6.4941 -2.2788 0.0 0
M  V30 END ATOM
M  V30 BEGIN BOND
M  V30 1 2 1 2
M  V30 2 1 2 3
M  V30 3 1 2 4
M  V30 4 1 3 5
M  V30 5 1 4 6
M  V30 6 1 5 7
M  V30 7 1 6 8
M  V30 8 1 7 9
M  V30 9 2 8 10
M  V30 10 1 9 11
M  V30 END BOND
M  V30 END CTAB
M  END
>  <Molecule Name>
Allylacetic acid, n-butyl ester

>  <Activity Label>
0

>  <SMILES>
CCCCOC(CCC=C)=O

>  <Molecular Formula>
C9H16O2

>  <InChIKey>
FSTRNYPZAMXNTC-UHFFFAOYSA-N

>  <Repellency>
Inactive

>  <Reference DOI>
10.3390/toxics11100837

>  <Target Organism>
Not applied

$$$$
Compound 214
Actelion Java MolfileCreator 2.0

  0  0  0  0  0  0              0 V3000
M  V30 BEGIN CTAB
M  V30 COUNTS 11 10 0 0 0
M  V30 BEGIN ATOM
M  V30 1 O 0.0 0.0 0.0 0
M  V30 2 C 0.0 1.5001 0.0 0
M  V30 3 O -1.2993 2.2443 0.0 0
M  V30 4 C 1.2993 2.2443 0.0 0
M  V30 5 C -2.5986 1.4883 0.0 0
M  V30 6 C 2.5986 1.4883 0.0 0
M  V30 7 C -3.898 2.2325 0.0 0
M  V30 8 C 3.898 2.2325 0.0 0
M  V30 9 C -5.1973 1.4765 0.0 0
M  V30 10 C 5.1973 1.4765 0.0 0
M  V30 11 C 6.4967 2.2206 0.0 0
M  V30 END ATOM
M  V30 BEGIN BOND
M  V30 1 2 1 2
M  V30 2 1 2 3
M  V30 3 1 2 4
M  V30 4 1 3 5
M  V30 5 1 4 6
M  V30 6 1 5 7
M  V30 7 1 6 8
M  V30 8 2 7 9
M  V30 9 1 8 10
M  V30 10 1 10 11
M  V30 END BOND
M  V30 END CTAB
M  END
>  <Molecule Name>
Caproic acid, allyl ester

>  <Activity Label>
0

>  <SMILES>
CCCCCC(OCC=C)=O

>  <Molecular Formula>
C9H16O2

>  <InChIKey>
RCSBILYQLVXLJG-UHFFFAOYSA-N

>  <Repellency>
Inactive

>  <Reference DOI>
10.3390/toxics11100837

>  <Target Organism>
Not applied

$$$$
Compound 215
Actelion Java MolfileCreator 2.0

  0  0  0  0  0  0              0 V3000
M  V30 BEGIN CTAB
M  V30 COUNTS 11 10 0 0 0
M  V30 BEGIN ATOM
M  V30 1 O 0.0 0.0 0.0 0
M  V30 2 C 0.0 1.5001 0.0 0
M  V30 3 O -1.2993 2.2443 0.0 0
M  V30 4 C 1.2993 2.2443 0.0 0
M  V30 5 C -2.5986 1.4883 0.0 0
M  V30 6 C 2.5986 1.4883 0.0 0
M  V30 7 C -3.898 2.2325 0.0 0
M  V30 8 C 3.898 2.2325 0.0 0
M  V30 9 C -5.1973 1.4765 0.0 0
M  V30 10 C 5.1973 1.4765 0.0 0
M  V30 11 C 6.4967 2.2206 0.0 0
M  V30 END ATOM
M  V30 BEGIN BOND
M  V30 1 2 1 2
M  V30 2 1 2 3
M  V30 3 1 2 4
M  V30 4 1 3 5
M  V30 5 1 4 6
M  V30 6 1 5 7
M  V30 7 1 6 8
M  V30 8 1 7 9
M  V30 9 1 8 10
M  V30 10 1 10 11
M  V30 END BOND
M  V30 END CTAB
M  END
>  <Molecule Name>
Caproic acid, n-propyl ester

>  <Activity Label>
0

>  <SMILES>
CCCCCC(OCCC)=O

>  <Molecular Formula>
C9H18O2

>  <InChIKey>
HTUIWRWYYVBCFT-UHFFFAOYSA-N

>  <Repellency>
Inactive

>  <Reference DOI>
10.3390/toxics11100837

>  <Target Organism>
Not applied

$$$$
Compound 216
Actelion Java MolfileCreator 2.0

  0  0  0  0  0  0              0 V3000
M  V30 BEGIN CTAB
M  V30 COUNTS 11 10 0 0 0
M  V30 BEGIN ATOM
M  V30 1 O 0.0 0.0 0.0 0
M  V30 2 C 0.0 1.4972 0.0 0
M  V30 3 O -1.2967 2.2517 0.0 0
M  V30 4 C 1.2967 2.2517 0.0 0
M  V30 5 C -2.5935 1.4972 0.0 0
M  V30 6 C 2.5935 1.4972 0.0 0
M  V30 7 C -3.8903 2.2517 0.0 0
M  V30 8 C 3.8903 2.2517 0.0 0
M  V30 9 C -5.1871 1.4972 0.0 0
M  V30 10 C -6.4839 2.2517 0.0 0
M  V30 11 C -7.7807 1.4972 0.0 0
M  V30 END ATOM
M  V30 BEGIN BOND
M  V30 1 2 1 2
M  V30 2 1 2 3
M  V30 3 1 2 4
M  V30 4 1 3 5
M  V30 5 2 4 6
M  V30 6 1 5 7
M  V30 7 1 6 8
M  V30 8 1 7 9
M  V30 9 1 9 10
M  V30 10 1 10 11
M  V30 END BOND
M  V30 END CTAB
M  END
>  <Molecule Name>
Crotonic acid, n-amyl ester

>  <Activity Label>
0

>  <SMILES>
CCCCCOC(/C=C/C)=O

>  <Molecular Formula>
C9H16O2

>  <InChIKey>
PWYYERNADDIMJR-QPJJXVBHSA-N

>  <Repellency>
Inactive

>  <Reference DOI>
10.3390/toxics11100837

>  <Target Organism>
Not applied

$$$$
Compound 217
Actelion Java MolfileCreator 2.0

  0  0  0  0  0  0              0 V3000
M  V30 BEGIN CTAB
M  V30 COUNTS 11 10 0 0 0
M  V30 BEGIN ATOM
M  V30 1 O 0.0 0.0 0.0 0
M  V30 2 C 0.0 1.4972 0.0 0
M  V30 3 O -1.2967 2.2517 0.0 0
M  V30 4 C 1.2967 2.2517 0.0 0
M  V30 5 C -2.5935 1.4972 0.0 0
M  V30 6 C 2.5935 1.4972 0.0 0
M  V30 7 C -3.8903 2.2517 0.0 0
M  V30 8 C 3.8903 2.2517 0.0 0
M  V30 9 C -5.1871 1.4972 0.0 0
M  V30 10 C -6.4839 2.2517 0.0 0
M  V30 11 C -7.7807 1.4972 0.0 0
M  V30 END ATOM
M  V30 BEGIN BOND
M  V30 1 2 1 2
M  V30 2 1 2 3
M  V30 3 1 2 4
M  V30 4 1 3 5
M  V30 5 1 4 6
M  V30 6 1 5 7
M  V30 7 1 6 8
M  V30 8 1 7 9
M  V30 9 1 9 10
M  V30 10 1 10 11
M  V30 END BOND
M  V30 END CTAB
M  END
>  <Molecule Name>
n-Butyric acid, n-amyl ester

>  <Activity Label>
0

>  <SMILES>
CCCCCOC(CCC)=O

>  <Molecular Formula>
C9H18O2

>  <InChIKey>
CFNJLPHOBMVMNS-UHFFFAOYSA-N

>  <Repellency>
Inactive

>  <Reference DOI>
10.3390/toxics11100837

>  <Target Organism>
Not applied

$$$$
Compound 218
Actelion Java MolfileCreator 2.0

  0  0  0  0  0  0              0 V3000
M  V30 BEGIN CTAB
M  V30 COUNTS 11 10 0 0 0
M  V30 BEGIN ATOM
M  V30 1 O 0.0 0.0 0.0 0
M  V30 2 C 0.0 -1.4992 0.0 0
M  V30 3 O -1.2985 -2.2548 0.0 0
M  V30 4 C 1.2985 -2.2548 0.0 0
M  V30 5 C -2.5971 -1.511 0.0 0
M  V30 6 C 2.5971 -1.511 0.0 0
M  V30 7 C -3.8957 -2.2666 0.0 0
M  V30 8 C 3.8957 -2.2666 0.0 0
M  V30 9 C -5.1943 -1.5228 0.0 0
M  V30 10 C -5.1943 -0.0236 0.0 0
M  V30 11 C -6.4929 -2.2784 0.0 0
M  V30 END ATOM
M  V30 BEGIN BOND
M  V30 1 2 1 2
M  V30 2 1 2 3
M  V30 3 1 2 4
M  V30 4 1 3 5
M  V30 5 1 4 6
M  V30 6 1 5 7
M  V30 7 1 6 8
M  V30 8 1 7 9
M  V30 9 1 9 10
M  V30 10 1 9 11
M  V30 END BOND
M  V30 END CTAB
M  END
>  <Molecule Name>
Butyric acid, iso-amyl ester

>  <Activity Label>
0

>  <SMILES>
CCCC(OCCC(C)C)=O

>  <Molecular Formula>
C9H18O2

>  <InChIKey>
PQLMXFQTAMDXIZ-UHFFFAOYSA-N

>  <Repellency>
Inactive

>  <Reference DOI>
10.3390/toxics11100837

>  <Target Organism>
Not applied

$$$$
Compound 219
Actelion Java MolfileCreator 2.0

  0  0  0  0  0  0              0 V3000
M  V30 BEGIN CTAB
M  V30 COUNTS 11 10 0 0 0
M  V30 BEGIN ATOM
M  V30 1 O 0.0 0.0 0.0 0
M  V30 2 C 0.0 1.4995 0.0 0
M  V30 3 O -1.2988 2.2434 0.0 0
M  V30 4 C 1.2988 2.2434 0.0 0
M  V30 5 C -2.5976 1.4877 0.0 0
M  V30 6 C 2.5976 1.4877 0.0 0
M  V30 7 C -3.8964 2.2316 0.0 0
M  V30 8 C -3.3533 0.1889 0.0 0
M  V30 9 C -1.8419 0.1889 0.0 0
M  V30 10 C 3.8964 2.2316 0.0 0
M  V30 11 C -5.1953 1.4759 0.0 0
M  V30 END ATOM
M  V30 BEGIN BOND
M  V30 1 2 1 2
M  V30 2 1 2 3
M  V30 3 1 2 4
M  V30 4 1 3 5
M  V30 5 1 4 6
M  V30 6 1 5 7
M  V30 7 1 5 8
M  V30 8 1 5 9
M  V30 9 1 6 10
M  V30 10 1 7 11
M  V30 END BOND
M  V30 END CTAB
M  END
>  <Molecule Name>
n-Butyric acid, tert-amyl ester

>  <Activity Label>
0

>  <SMILES>
CCCC(OC(C)(C)CC)=O

>  <Molecular Formula>
C9H18O2

>  <InChIKey>
VTZSXMMBJHMLEE-UHFFFAOYSA-N

>  <Repellency>
Inactive

>  <Reference DOI>
10.3390/toxics11100837

>  <Target Organism>
Not applied

$$$$
Compound 220
Actelion Java MolfileCreator 2.0

  0  0  0  0  0  0              0 V3000
M  V30 BEGIN CTAB
M  V30 COUNTS 11 10 0 0 0
M  V30 BEGIN ATOM
M  V30 1 O 0.0 0.0 0.0 0
M  V30 2 C 0.0 -1.4995 0.0 0
M  V30 3 O -1.2988 -2.2552 0.0 0
M  V30 4 C 1.2988 -2.2552 0.0 0
M  V30 5 C -2.5977 -1.5114 0.0 0 CFG=2
M  V30 6 C 2.5977 -1.5114 0.0 0
M  V30 7 C -3.8965 -2.2671 0.0 0
M  V30 8 C -2.5977 -0.0118 0.0 0
M  V30 9 C -5.1954 -1.5232 0.0 0
M  V30 10 C -5.1954 -0.0236 0.0 0
M  V30 11 C -6.4943 -2.2789 0.0 0
M  V30 END ATOM
M  V30 BEGIN BOND
M  V30 1 2 1 2
M  V30 2 1 2 3
M  V30 3 1 2 4
M  V30 4 1 3 5
M  V30 5 2 4 6
M  V30 6 1 5 7
M  V30 7 1 5 8 CFG=3
M  V30 8 1 7 9
M  V30 9 2 9 10
M  V30 10 1 9 11
M  V30 END BOND
M  V30 BEGIN COLLECTION
M  V30 MDLV30/STERAC1 ATOMS=(1 5)
M  V30 END COLLECTION
M  V30 END CTAB
M  END
>  <Molecule Name>
Acrylic acid, 4-methyl-4-pentene-2-yl ester

>  <Activity Label>
0

>  <SMILES>
CC(CC(C)=C)OC(C=C)=O

>  <Molecular Formula>
C9H14O2

>  <InChIKey>
BDTCRRVTROVHGF-UHFFFAOYSA-N

>  <Repellency>
Inactive

>  <Reference DOI>
10.3390/toxics11100837

>  <Target Organism>
Not applied

$$$$
Compound 221
Actelion Java MolfileCreator 2.0

  0  0  0  0  0  0              0 V3000
M  V30 BEGIN CTAB
M  V30 COUNTS 11 10 0 0 0
M  V30 BEGIN ATOM
M  V30 1 O 0.0 0.0 0.0 0
M  V30 2 C 0.0 -1.4995 0.0 0
M  V30 3 O -1.2988 -2.2552 0.0 0
M  V30 4 C 1.2988 -2.2552 0.0 0
M  V30 5 C -2.5977 -1.5114 0.0 0 CFG=2
M  V30 6 C 2.5977 -1.5114 0.0 0
M  V30 7 C -3.8965 -2.2671 0.0 0
M  V30 8 C -2.5977 -0.0118 0.0 0
M  V30 9 C -5.1954 -1.5232 0.0 0
M  V30 10 C -5.1954 -0.0236 0.0 0
M  V30 11 C -6.4943 -2.2789 0.0 0
M  V30 END ATOM
M  V30 BEGIN BOND
M  V30 1 2 1 2
M  V30 2 1 2 3
M  V30 3 1 2 4
M  V30 4 1 3 5
M  V30 5 2 4 6
M  V30 6 1 5 7
M  V30 7 1 5 8 CFG=3
M  V30 8 1 7 9
M  V30 9 1 9 10
M  V30 10 1 9 11
M  V30 END BOND
M  V30 BEGIN COLLECTION
M  V30 MDLV30/STERAC1 ATOMS=(1 5)
M  V30 END COLLECTION
M  V30 END CTAB
M  END
>  <Molecule Name>
Acrylic acid, 4-methyl-2-pentyl ester

>  <Activity Label>
0

>  <SMILES>
CC(C)CC(C)OC(C=C)=O

>  <Molecular Formula>
C9H16O2

>  <InChIKey>
BVDBXCXQMHBGQM-UHFFFAOYSA-N

>  <Repellency>
Inactive

>  <Reference DOI>
10.3390/toxics11100837

>  <Target Organism>
Not applied

$$$$
Compound 222
Actelion Java MolfileCreator 2.0

  0  0  0  0  0  0              0 V3000
M  V30 BEGIN CTAB
M  V30 COUNTS 11 10 0 0 0
M  V30 BEGIN ATOM
M  V30 1 O 0.0 0.0 0.0 0
M  V30 2 C 0.0 1.5001 0.0 0
M  V30 3 O -1.2993 2.2443 0.0 0
M  V30 4 C 1.2993 2.2443 0.0 0
M  V30 5 C -2.5986 1.4883 0.0 0
M  V30 6 C 2.5986 1.4883 0.0 0
M  V30 7 C 3.898 2.2325 0.0 0
M  V30 8 C 5.1973 1.4765 0.0 0
M  V30 9 C 6.4967 2.2206 0.0 0
M  V30 10 C 7.796 1.4647 0.0 0
M  V30 11 C 9.0954 2.2088 0.0 0
M  V30 END ATOM
M  V30 BEGIN BOND
M  V30 1 2 1 2
M  V30 2 1 2 3
M  V30 3 1 2 4
M  V30 4 1 3 5
M  V30 5 1 4 6
M  V30 6 1 6 7
M  V30 7 1 7 8
M  V30 8 1 8 9
M  V30 9 1 9 10
M  V30 10 1 10 11
M  V30 END BOND
M  V30 END CTAB
M  END
>  <Molecule Name>
Caprylic acid, methyl ester

>  <Activity Label>
0

>  <SMILES>
CCCCCCCC(OC)=O

>  <Molecular Formula>
C9H18O2

>  <InChIKey>
JGHZJRVDZXSNKQ-UHFFFAOYSA-N

>  <Repellency>
Inactive

>  <Reference DOI>
10.3390/toxics11100837

>  <Target Organism>
Not applied

$$$$
Compound 223
Actelion Java MolfileCreator 2.0

  0  0  0  0  0  0              0 V3000
M  V30 BEGIN CTAB
M  V30 COUNTS 11 10 0 0 0
M  V30 BEGIN ATOM
M  V30 1 O 0.0 0.0 0.0 0
M  V30 2 C 0.0 1.4972 0.0 0
M  V30 3 O -1.2967 2.2517 0.0 0
M  V30 4 C 1.2967 2.2517 0.0 0
M  V30 5 C -2.5935 1.4972 0.0 0
M  V30 6 C -3.8903 2.2517 0.0 0
M  V30 7 C -5.1871 1.4972 0.0 0
M  V30 8 C -6.4839 2.2517 0.0 0
M  V30 9 C -7.7807 1.4972 0.0 0
M  V30 10 C -9.0775 2.2517 0.0 0
M  V30 11 C -10.3743 1.4972 0.0 0
M  V30 END ATOM
M  V30 BEGIN BOND
M  V30 1 2 1 2
M  V30 2 1 2 3
M  V30 3 1 2 4
M  V30 4 1 3 5
M  V30 5 1 5 6
M  V30 6 1 6 7
M  V30 7 1 7 8
M  V30 8 1 8 9
M  V30 9 1 9 10
M  V30 10 1 10 11
M  V30 END BOND
M  V30 END CTAB
M  END
>  <Molecule Name>
Acetic acid, n-heptyl ester

>  <Activity Label>
0

>  <SMILES>
CCCCCCCOC(C)=O

>  <Molecular Formula>
C9H18O2

>  <InChIKey>
ZCZSIDMEHXZRLG-UHFFFAOYSA-N

>  <Repellency>
Inactive

>  <Reference DOI>
10.3390/toxics11100837

>  <Target Organism>
Not applied

$$$$
Compound 224
Actelion Java MolfileCreator 2.0

  0  0  0  0  0  0              0 V3000
M  V30 BEGIN CTAB
M  V30 COUNTS 11 10 0 0 0
M  V30 BEGIN ATOM
M  V30 1 O 0.0 0.0 0.0 0
M  V30 2 C 0.0 -1.4992 0.0 0
M  V30 3 O -1.2985 -2.2548 0.0 0
M  V30 4 C 1.2985 -2.2548 0.0 0
M  V30 5 C -2.5971 -1.511 0.0 0
M  V30 6 C 2.5971 -1.511 0.0 0
M  V30 7 C -2.5971 -0.0118 0.0 0
M  V30 8 C -3.8957 -2.2666 0.0 0
M  V30 9 C 3.8957 -2.2666 0.0 0
M  V30 10 C 5.1943 -1.5228 0.0 0
M  V30 11 C 6.4929 -2.2784 0.0 0
M  V30 END ATOM
M  V30 BEGIN BOND
M  V30 1 2 1 2
M  V30 2 1 2 3
M  V30 3 1 2 4
M  V30 4 1 3 5
M  V30 5 1 4 6
M  V30 6 1 5 7
M  V30 7 1 5 8
M  V30 8 1 6 9
M  V30 9 1 9 10
M  V30 10 1 10 11
M  V30 END BOND
M  V30 END CTAB
M  END
>  <Molecule Name>
Caproic acid, iso-propyl ester

>  <Activity Label>
0

>  <SMILES>
CCCCCC(OC(C)C)=O

>  <Molecular Formula>
C9H18O2

>  <InChIKey>
JSHDAORXSNJOBA-UHFFFAOYSA-N

>  <Repellency>
Inactive

>  <Reference DOI>
10.3390/toxics11100837

>  <Target Organism>
Not applied

$$$$
Compound 225
Actelion Java MolfileCreator 2.0

  0  0  0  0  0  0              0 V3000
M  V30 BEGIN CTAB
M  V30 COUNTS 11 10 0 0 0
M  V30 BEGIN ATOM
M  V30 1 O 0.0 0.0 0.0 0
M  V30 2 C 1.3004 0.7475 0.0 0
M  V30 3 C 2.6009 0.0 0.0 0
M  V30 4 C 3.9014 0.7475 0.0 0
M  V30 5 C 5.2018 0.0 0.0 0
M  V30 6 C 6.5023 0.7475 0.0 0
M  V30 7 C 7.8028 0.0 0.0 0
M  V30 8 C 9.1032 0.7475 0.0 0
M  V30 9 C 10.4037 0.0 0.0 0
M  V30 10 C 11.7042 0.7475 0.0 0
M  V30 11 O 13.0047 0.0 0.0 0
M  V30 END ATOM
M  V30 BEGIN BOND
M  V30 1 1 1 2
M  V30 2 1 2 3
M  V30 3 1 3 4
M  V30 4 1 4 5
M  V30 5 1 5 6
M  V30 6 1 6 7
M  V30 7 1 7 8
M  V30 8 1 8 9
M  V30 9 1 9 10
M  V30 10 1 10 11
M  V30 END BOND
M  V30 END CTAB
M  END
>  <Molecule Name>
1,9-Nonanediol

>  <Activity Label>
0

>  <SMILES>
OCCCCCCCCCO

>  <Molecular Formula>
C9H20O2

>  <InChIKey>
ALVZNPYWJMLXKV-UHFFFAOYSA-N

>  <Repellency>
Inactive

>  <Reference DOI>
10.3390/toxics11100837

>  <Target Organism>
Not applied

$$$$
Compound 226
Actelion Java MolfileCreator 2.0

  0  0  0  0  0  0              0 V3000
M  V30 BEGIN CTAB
M  V30 COUNTS 11 10 0 0 0
M  V30 BEGIN ATOM
M  V30 1 Cl 0.0 0.0 0.0 0
M  V30 2 C 1.2991 0.744 0.0 0
M  V30 3 C 2.5982 -0.0118 0.0 0 CFG=2
M  V30 4 C 3.8973 0.7322 0.0 0
M  V30 5 C 2.5982 -1.5116 0.0 0
M  V30 6 O 5.1964 -0.0236 0.0 0
M  V30 7 C 6.4955 0.7204 0.0 0
M  V30 8 O 6.4955 2.2202 0.0 0
M  V30 9 C 7.7946 -0.0354 0.0 0
M  V30 10 C 9.0937 0.7086 0.0 0
M  V30 11 C 10.3928 -0.0472 0.0 0
M  V30 END ATOM
M  V30 BEGIN BOND
M  V30 1 1 1 2
M  V30 2 1 2 3
M  V30 3 1 3 4
M  V30 4 1 3 5 CFG=3
M  V30 5 1 4 6
M  V30 6 1 6 7
M  V30 7 2 7 8
M  V30 8 1 7 9
M  V30 9 1 9 10
M  V30 10 1 10 11
M  V30 END BOND
M  V30 BEGIN COLLECTION
M  V30 MDLV30/STERAC1 ATOMS=(1 3)
M  V30 END COLLECTION
M  V30 END CTAB
M  END
>  <Molecule Name>
Butyric acid, 3-chloro-2-methylpropyl ester

>  <Activity Label>
0

>  <SMILES>
CCCC(OCC(C)CCl)=O

>  <Molecular Formula>
C8H15O2Cl

>  <InChIKey>
FYTUAAJVCXXRAD-UHFFFAOYSA-N

>  <Repellency>
Inactive

>  <Reference DOI>
10.3390/toxics11100837

>  <Target Organism>
Not applied

$$$$
Compound 227
Actelion Java MolfileCreator 2.0

  0  0  0  0  0  0              0 V3000
M  V30 BEGIN CTAB
M  V30 COUNTS 11 10 0 0 0
M  V30 BEGIN ATOM
M  V30 1 Cl 0.0 0.0 0.0 0
M  V30 2 C -0.7441 -1.2993 0.0 0
M  V30 3 Cl 0.5551 -2.0553 0.0 0
M  V30 4 Cl -1.4883 -2.5986 0.0 0
M  V30 5 C -2.0435 -0.5551 0.0 0
M  V30 6 O -2.0435 0.9449 0.0 0
M  V30 7 O -3.3428 -1.3111 0.0 0
M  V30 8 C -4.6422 -0.5669 0.0 0
M  V30 9 C -5.9415 -1.3229 0.0 0
M  V30 10 C -7.2408 -0.5787 0.0 0
M  V30 11 C -8.5402 -1.3347 0.0 0
M  V30 END ATOM
M  V30 BEGIN BOND
M  V30 1 1 1 2
M  V30 2 1 2 3
M  V30 3 1 2 4
M  V30 4 1 2 5
M  V30 5 2 5 6
M  V30 6 1 5 7
M  V30 7 1 7 8
M  V30 8 1 8 9
M  V30 9 1 9 10
M  V30 10 1 10 11
M  V30 END BOND
M  V30 END CTAB
M  END
>  <Molecule Name>
Trichloroacetic acid, n-butyl ester

>  <Activity Label>
0

>  <SMILES>
CCCCOC(C(Cl)(Cl)Cl)=O

>  <Molecular Formula>
C6H9O2Cl3

>  <InChIKey>
SECVZLDDYUWJAC-UHFFFAOYSA-N

>  <Repellency>
Inactive

>  <Reference DOI>
10.3390/toxics11100837

>  <Target Organism>
Not applied

$$$$
Compound 228
Actelion Java MolfileCreator 2.0

  0  0  0  0  0  0              0 V3000
M  V30 BEGIN CTAB
M  V30 COUNTS 11 10 0 0 0
M  V30 BEGIN ATOM
M  V30 1 Cl 0.0 0.0 0.0 0
M  V30 2 C 0.744 -1.2991 0.0 0
M  V30 3 Cl 2.0431 -0.555 0.0 0
M  V30 4 Cl 1.4998 -2.5982 0.0 0
M  V30 5 C -0.555 -2.0549 0.0 0
M  V30 6 O -0.555 -3.5548 0.0 0
M  V30 7 O -1.8541 -1.3109 0.0 0
M  V30 8 C -3.1532 -2.0667 0.0 0 CFG=2
M  V30 9 C -4.4523 -1.3227 0.0 0
M  V30 10 C -3.1532 -3.5666 0.0 0
M  V30 11 C -5.7514 -2.0785 0.0 0
M  V30 END ATOM
M  V30 BEGIN BOND
M  V30 1 1 1 2
M  V30 2 1 2 3
M  V30 3 1 2 4
M  V30 4 1 2 5
M  V30 5 2 5 6
M  V30 6 1 5 7
M  V30 7 1 7 8
M  V30 8 1 8 9
M  V30 9 1 8 10 CFG=1
M  V30 10 1 9 11
M  V30 END BOND
M  V30 BEGIN COLLECTION
M  V30 MDLV30/STERAC1 ATOMS=(1 8)
M  V30 END COLLECTION
M  V30 END CTAB
M  END
>  <Molecule Name>
Trichloroacetic acid, sec-butyl ester

>  <Activity Label>
0

>  <SMILES>
CCC(C)OC(C(Cl)(Cl)Cl)=O

>  <Molecular Formula>
C6H9O2Cl3

>  <InChIKey>
CJTKROHEGUUXOZ-UHFFFAOYSA-N

>  <Repellency>
Inactive

>  <Reference DOI>
10.3390/toxics11100837

>  <Target Organism>
Not applied

$$$$
Compound 229
Actelion Java MolfileCreator 2.0

  0  0  0  0  0  0              0 V3000
M  V30 BEGIN CTAB
M  V30 COUNTS 11 10 0 0 0
M  V30 BEGIN ATOM
M  V30 1 O 0.0 0.0 0.0 0
M  V30 2 C 1.3004 0.7475 0.0 0
M  V30 3 C 2.6009 0.0 0.0 0
M  V30 4 C 3.9014 0.7475 0.0 0
M  V30 5 C 5.2018 0.0 0.0 0
M  V30 6 C 6.5023 0.7475 0.0 0
M  V30 7 C 7.8028 0.0 0.0 0
M  V30 8 C 9.1032 0.7475 0.0 0
M  V30 9 C 10.4037 0.0 0.0 0
M  V30 10 C 11.7042 0.7475 0.0 0
M  V30 11 C 13.0047 0.0 0.0 0
M  V30 END ATOM
M  V30 BEGIN BOND
M  V30 1 1 1 2
M  V30 2 1 2 3
M  V30 3 1 3 4
M  V30 4 1 4 5
M  V30 5 1 5 6
M  V30 6 1 6 7
M  V30 7 1 7 8
M  V30 8 1 8 9
M  V30 9 1 9 10
M  V30 10 1 10 11
M  V30 END BOND
M  V30 END CTAB
M  END
>  <Molecule Name>
n-Decyl alcohol

>  <Activity Label>
0

>  <SMILES>
CCCCCCCCCCO

>  <Molecular Formula>
C10H22O

>  <InChIKey>
MWKFXSUHUHTGQN-UHFFFAOYSA-N

>  <Repellency>
Inactive

>  <Reference DOI>
10.3390/toxics11100837

>  <Target Organism>
Not applied

$$$$
Compound 230
Actelion Java MolfileCreator 2.0

  0  0  0  0  0  0              0 V3000
M  V30 BEGIN CTAB
M  V30 COUNTS 11 10 0 0 0
M  V30 BEGIN ATOM
M  V30 1 O 0.0 0.0 0.0 0
M  V30 2 C 1.2991 0.744 0.0 0
M  V30 3 C 2.5982 -0.0118 0.0 0
M  V30 4 C 3.8973 0.7322 0.0 0 CFG=2
M  V30 5 C 5.1964 -0.0236 0.0 0
M  V30 6 C 3.8973 2.232 0.0 0
M  V30 7 C 6.4955 0.7204 0.0 0
M  V30 8 C 7.7946 -0.0354 0.0 0
M  V30 9 C 9.0937 0.7086 0.0 0
M  V30 10 C 10.3928 -0.0472 0.0 0
M  V30 11 C 9.0937 2.2084 0.0 0
M  V30 END ATOM
M  V30 BEGIN BOND
M  V30 1 2 1 2
M  V30 2 1 2 3
M  V30 3 1 3 4
M  V30 4 1 4 5
M  V30 5 1 4 6 CFG=1
M  V30 6 1 5 7
M  V30 7 1 7 8
M  V30 8 2 8 9
M  V30 9 1 9 10
M  V30 10 1 9 11
M  V30 END BOND
M  V30 BEGIN COLLECTION
M  V30 MDLV30/STERAC1 ATOMS=(1 4)
M  V30 END COLLECTION
M  V30 END CTAB
M  END
>  <Molecule Name>
Citronellal

>  <Activity Label>
0

>  <SMILES>
CC(CCC=C(C)C)CC=O

>  <Molecular Formula>
C10H18O

>  <InChIKey>
NEHNMFOYXAPHSD-UHFFFAOYSA-N

>  <Repellency>
Inactive

>  <Reference DOI>
10.3390/toxics11100837

>  <Target Organism>
Not applied

$$$$
Compound 231
Actelion Java MolfileCreator 2.0

  0  0  0  0  0  0              0 V3000
M  V30 BEGIN CTAB
M  V30 COUNTS 11 10 0 0 0
M  V30 BEGIN ATOM
M  V30 1 O 0.0 0.0 0.0 0
M  V30 2 C 1.3004 -0.7475 0.0 0
M  V30 3 C -1.3004 -0.7475 0.0 0
M  V30 4 C 2.6009 0.0 0.0 0
M  V30 5 C -2.6009 0.0 0.0 0
M  V30 6 C 3.9014 -0.7475 0.0 0
M  V30 7 C -3.9014 -0.7475 0.0 0
M  V30 8 C 5.2018 0.0 0.0 0
M  V30 9 C -5.2018 0.0 0.0 0
M  V30 10 C 6.5023 -0.7475 0.0 0
M  V30 11 C -6.5023 -0.7475 0.0 0
M  V30 END ATOM
M  V30 BEGIN BOND
M  V30 1 1 1 2
M  V30 2 1 1 3
M  V30 3 1 2 4
M  V30 4 1 3 5
M  V30 5 1 4 6
M  V30 6 1 5 7
M  V30 7 1 6 8
M  V30 8 1 7 9
M  V30 9 1 8 10
M  V30 10 1 9 11
M  V30 END BOND
M  V30 END CTAB
M  END
>  <Molecule Name>
Diamyl ether

>  <Activity Label>
0

>  <SMILES>
CCCCCOCCCCC

>  <Molecular Formula>
C10H22O

>  <InChIKey>
AOPDRZXCEAKHHW-UHFFFAOYSA-N

>  <Repellency>
Inactive

>  <Reference DOI>
10.3390/toxics11100837

>  <Target Organism>
Not applied

$$$$
Compound 232
Actelion Java MolfileCreator 2.0

  0  0  0  0  0  0              0 V3000
M  V30 BEGIN CTAB
M  V30 COUNTS 11 10 0 0 0
M  V30 BEGIN ATOM
M  V30 1 O 0.0 0.0 0.0 0
M  V30 2 C 1.2991 0.744 0.0 0
M  V30 3 C -1.2991 0.744 0.0 0
M  V30 4 C 2.5982 -0.0118 0.0 0
M  V30 5 C -2.5982 -0.0118 0.0 0
M  V30 6 C 3.8973 0.7322 0.0 0
M  V30 7 C -3.8973 0.7322 0.0 0
M  V30 8 C 5.1964 -0.0236 0.0 0
M  V30 9 C 3.8973 2.232 0.0 0
M  V30 10 C -3.8973 2.232 0.0 0
M  V30 11 C -5.1964 -0.0236 0.0 0
M  V30 END ATOM
M  V30 BEGIN BOND
M  V30 1 1 1 2
M  V30 2 1 1 3
M  V30 3 1 2 4
M  V30 4 1 3 5
M  V30 5 1 4 6
M  V30 6 1 5 7
M  V30 7 1 6 8
M  V30 8 1 6 9
M  V30 9 1 7 10
M  V30 10 1 7 11
M  V30 END BOND
M  V30 END CTAB
M  END
>  <Molecule Name>
Di-iso-amyl ether

>  <Activity Label>
0

>  <SMILES>
CC(C)CCOCCC(C)C

>  <Molecular Formula>
C10H22O

>  <InChIKey>
AQZGPSLYZOOYQP-UHFFFAOYSA-N

>  <Repellency>
Inactive

>  <Reference DOI>
10.3390/toxics11100837

>  <Target Organism>
Not applied

$$$$
Compound 233
Actelion Java MolfileCreator 2.0

  0  0  0  0  0  0              0 V3000
M  V30 BEGIN CTAB
M  V30 COUNTS 11 10 0 0 0
M  V30 BEGIN ATOM
M  V30 1 O 0.0 0.0 0.0 0
M  V30 2 C 0.0 -1.4995 0.0 0
M  V30 3 O -1.2988 -2.2552 0.0 0
M  V30 4 O 1.2988 -2.2552 0.0 0
M  V30 5 C -2.5977 -1.5114 0.0 0 CFG=2
M  V30 6 C 2.5977 -1.5114 0.0 0
M  V30 7 C -3.8965 -2.2671 0.0 0
M  V30 8 C -2.5977 -0.0118 0.0 0
M  V30 9 O -3.8965 -3.7666 0.0 0
M  V30 10 O -5.1954 -1.5232 0.0 0
M  V30 11 C -6.4943 -2.2789 0.0 0
M  V30 END ATOM
M  V30 BEGIN BOND
M  V30 1 2 1 2
M  V30 2 1 2 3
M  V30 3 1 2 4
M  V30 4 1 3 5
M  V30 5 1 4 6
M  V30 6 1 5 7
M  V30 7 1 5 8 CFG=3
M  V30 8 2 7 9
M  V30 9 1 7 10
M  V30 10 1 10 11
M  V30 END BOND
M  V30 BEGIN COLLECTION
M  V30 MDLV30/STERAC1 ATOMS=(1 5)
M  V30 END COLLECTION
M  V30 END CTAB
M  END
>  <Molecule Name>
Carbonic acid, methyl alpha-carbomethoxyethyl ester

>  <Activity Label>
0

>  <SMILES>
CC(C(OC)=O)OC(OC)=O

>  <Molecular Formula>
C6H10O5

>  <InChIKey>
YYQQVTLVYLTGPR-UHFFFAOYSA-N

>  <Repellency>
Inactive

>  <Reference DOI>
10.3390/toxics11100837

>  <Target Organism>
Not applied

$$$$
Compound 234
Actelion Java MolfileCreator 2.0

  0  0  0  0  0  0              0 V3000
M  V30 BEGIN CTAB
M  V30 COUNTS 11 10 0 0 0
M  V30 BEGIN ATOM
M  V30 1 O 0.0 0.0 0.0 0
M  V30 2 C 0.0 1.4998 0.0 0
M  V30 3 O -1.2991 2.2439 0.0 0
M  V30 4 C 1.2991 2.2439 0.0 0
M  V30 5 C -2.5982 1.488 0.0 0 CFG=2
M  V30 6 C 2.5982 1.488 0.0 0
M  V30 7 C -3.8973 2.232 0.0 0
M  V30 8 C -2.5982 -0.0118 0.0 0
M  V30 9 O 3.8973 2.232 0.0 0
M  V30 10 C -5.1964 1.4762 0.0 0
M  V30 11 C 5.1964 1.4762 0.0 0
M  V30 END ATOM
M  V30 BEGIN BOND
M  V30 1 2 1 2
M  V30 2 1 2 3
M  V30 3 1 2 4
M  V30 4 1 3 5
M  V30 5 1 4 6
M  V30 6 1 5 7
M  V30 7 1 5 8 CFG=1
M  V30 8 1 6 9
M  V30 9 1 7 10
M  V30 10 1 9 11
M  V30 END BOND
M  V30 BEGIN COLLECTION
M  V30 MDLV30/STERAC1 ATOMS=(1 5)
M  V30 END COLLECTION
M  V30 END CTAB
M  END
>  <Molecule Name>
beta-Methoxypropionic acid, sec-butyl ester

>  <Activity Label>
0

>  <SMILES>
CCC(C)OC(CCOC)=O

>  <Molecular Formula>
C8H16O3

>  <InChIKey>
VBYMWZHONSTKTK-UHFFFAOYSA-N

>  <Repellency>
Inactive

>  <Reference DOI>
10.3390/toxics11100837

>  <Target Organism>
Not applied

$$$$
Compound 235
Actelion Java MolfileCreator 2.0

  0  0  0  0  0  0              0 V3000
M  V30 BEGIN CTAB
M  V30 COUNTS 11 10 0 0 0
M  V30 BEGIN ATOM
M  V30 1 O 0.0 0.0 0.0 0
M  V30 2 C 0.0 -1.4998 0.0 0
M  V30 3 O -1.2991 -2.2557 0.0 0
M  V30 4 C 1.2991 -2.2557 0.0 0 CFG=2
M  V30 5 C -2.5982 -1.5116 0.0 0
M  V30 6 C 1.2991 -3.7555 0.0 0
M  V30 7 C 2.5982 -1.5116 0.0 0
M  V30 8 C -3.8973 -2.2675 0.0 0
M  V30 9 O 0.0 -4.4996 0.0 0
M  V30 10 C 2.5982 -4.4996 0.0 0
M  V30 11 C 3.8973 -2.2675 0.0 0
M  V30 END ATOM
M  V30 BEGIN BOND
M  V30 1 2 1 2
M  V30 2 1 2 3
M  V30 3 1 2 4
M  V30 4 1 3 5
M  V30 5 1 4 6
M  V30 6 1 4 7 CFG=1
M  V30 7 1 5 8
M  V30 8 2 6 9
M  V30 9 1 6 10
M  V30 10 1 7 11
M  V30 END BOND
M  V30 BEGIN COLLECTION
M  V30 MDLV30/STERAC1 ATOMS=(1 4)
M  V30 END COLLECTION
M  V30 END CTAB
M  END
>  <Molecule Name>
2-Ethylacetoacetic acid, ethyl ester

>  <Activity Label>
0

>  <SMILES>
CCC(C(C)=O)C(OCC)=O

>  <Molecular Formula>
C8H14O3

>  <InChIKey>
OKANYBNORCUPKZ-UHFFFAOYSA-N

>  <Repellency>
Inactive

>  <Reference DOI>
10.3390/toxics11100837

>  <Target Organism>
Not applied

$$$$
Compound 236
Actelion Java MolfileCreator 2.0

  0  0  0  0  0  0              0 V3000
M  V30 BEGIN CTAB
M  V30 COUNTS 11 10 0 0 0
M  V30 BEGIN ATOM
M  V30 1 O 0.0 0.0 0.0 0
M  V30 2 C 0.0 -1.4995 0.0 0
M  V30 3 O -1.2988 -2.2552 0.0 0
M  V30 4 C 1.2988 -2.2552 0.0 0 CFG=2
M  V30 5 C -2.5977 -1.5114 0.0 0
M  V30 6 C 2.5977 -1.5114 0.0 0
M  V30 7 C 1.2988 -3.7548 0.0 0
M  V30 8 C -3.8965 -2.2671 0.0 0
M  V30 9 O 2.5977 -0.0118 0.0 0
M  V30 10 C 3.8965 -2.2671 0.0 0
M  V30 11 C 5.1954 -1.5232 0.0 0
M  V30 END ATOM
M  V30 BEGIN BOND
M  V30 1 2 1 2
M  V30 2 1 2 3
M  V30 3 1 2 4
M  V30 4 1 3 5
M  V30 5 1 4 6
M  V30 6 1 4 7 CFG=3
M  V30 7 1 5 8
M  V30 8 2 6 9
M  V30 9 1 6 10
M  V30 10 1 10 11
M  V30 END BOND
M  V30 BEGIN COLLECTION
M  V30 MDLV30/STERAC1 ATOMS=(1 4)
M  V30 END COLLECTION
M  V30 END CTAB
M  END
>  <Molecule Name>
alpha-Propionylpropionic acid, ethyl ester

>  <Activity Label>
0

>  <SMILES>
CCC(C(C)C(OCC)=O)=O

>  <Molecular Formula>
C8H14O3

>  <InChIKey>
YXZUMIRYUCTIGL-UHFFFAOYSA-N

>  <Repellency>
Inactive

>  <Reference DOI>
10.3390/toxics11100837

>  <Target Organism>
Not applied

$$$$
Compound 237
Actelion Java MolfileCreator 2.0

  0  0  0  0  0  0              0 V3000
M  V30 BEGIN CTAB
M  V30 COUNTS 11 10 0 0 0
M  V30 BEGIN ATOM
M  V30 1 O 0.0 0.0 0.0 0
M  V30 2 C 0.0 -1.4998 0.0 0
M  V30 3 O -1.2991 -2.2557 0.0 0
M  V30 4 C 1.2991 -2.2557 0.0 0
M  V30 5 C -2.5982 -1.5116 0.0 0
M  V30 6 O 1.2991 -3.7555 0.0 0
M  V30 7 C 2.5982 -1.5116 0.0 0
M  V30 8 C -3.8973 -2.2675 0.0 0
M  V30 9 C 1.8541 -0.2125 0.0 0
M  V30 10 C 3.8973 -0.7676 0.0 0
M  V30 11 C 3.354 -2.8107 0.0 0
M  V30 END ATOM
M  V30 BEGIN BOND
M  V30 1 2 1 2
M  V30 2 1 2 3
M  V30 3 1 2 4
M  V30 4 1 3 5
M  V30 5 2 4 6
M  V30 6 1 4 7
M  V30 7 1 5 8
M  V30 8 1 7 9
M  V30 9 1 7 10
M  V30 10 1 7 11
M  V30 END BOND
M  V30 END CTAB
M  END
>  <Molecule Name>
Trimethylpyruvic acid, ethyl ester

>  <Activity Label>
0

>  <SMILES>
CCOC(C(C(C)(C)C)=O)=O

>  <Molecular Formula>
C8H14O3

>  <InChIKey>
LPUVHKRZLUSGEQ-UHFFFAOYSA-N

>  <Repellency>
Inactive

>  <Reference DOI>
10.3390/toxics11100837

>  <Target Organism>
Not applied

$$$$
Compound 238
Actelion Java MolfileCreator 2.0

  0  0  0  0  0  0              0 V3000
M  V30 BEGIN CTAB
M  V30 COUNTS 11 10 0 0 0
M  V30 BEGIN ATOM
M  V30 1 O 0.0 0.0 0.0 0
M  V30 2 C 0.0 1.4975 0.0 0
M  V30 3 O -1.297 2.2521 0.0 0
M  V30 4 C 1.297 2.2521 0.0 0 CFG=1
M  V30 5 C -2.5941 1.4975 0.0 0
M  V30 6 O 2.5941 1.4975 0.0 0
M  V30 7 C 1.297 3.7496 0.0 0
M  V30 8 C -3.8911 2.2521 0.0 0
M  V30 9 C -5.1882 1.4975 0.0 0
M  V30 10 C -6.4852 2.2521 0.0 0
M  V30 11 C -7.7823 1.4975 0.0 0
M  V30 END ATOM
M  V30 BEGIN BOND
M  V30 1 2 1 2
M  V30 2 1 2 3
M  V30 3 1 2 4
M  V30 4 1 3 5
M  V30 5 1 4 6 CFG=3
M  V30 6 1 4 7
M  V30 7 1 5 8
M  V30 8 1 8 9
M  V30 9 1 9 10
M  V30 10 1 10 11
M  V30 END BOND
M  V30 BEGIN COLLECTION
M  V30 MDLV30/STERAC1 ATOMS=(1 4)
M  V30 END COLLECTION
M  V30 END CTAB
M  END
>  <Molecule Name>
Lactic acid, n-amyl ester

>  <Activity Label>
0

>  <SMILES>
CCCCCOC(C(C)O)=O

>  <Molecular Formula>
C8H16O3

>  <InChIKey>
GXOHBWLPQHTYPF-UHFFFAOYSA-N

>  <Repellency>
Inactive

>  <Reference DOI>
10.3390/toxics11100837

>  <Target Organism>
Not applied

$$$$
Compound 239
Actelion Java MolfileCreator 2.0

  0  0  0  0  0  0              0 V3000
M  V30 BEGIN CTAB
M  V30 COUNTS 11 10 0 0 0
M  V30 BEGIN ATOM
M  V30 1 O 0.0 0.0 0.0 0
M  V30 2 C 0.0 -1.4995 0.0 0
M  V30 3 O -1.2988 -2.2552 0.0 0
M  V30 4 C 1.2988 -2.2552 0.0 0 CFG=1
M  V30 5 C -2.5977 -1.5114 0.0 0
M  V30 6 O 2.5977 -1.5114 0.0 0
M  V30 7 C 1.2988 -3.7548 0.0 0
M  V30 8 C -3.8965 -2.2671 0.0 0
M  V30 9 C -5.1954 -1.5232 0.0 0
M  V30 10 C -5.1954 -0.0236 0.0 0
M  V30 11 C -6.4943 -2.2789 0.0 0
M  V30 END ATOM
M  V30 BEGIN BOND
M  V30 1 2 1 2
M  V30 2 1 2 3
M  V30 3 1 2 4
M  V30 4 1 3 5
M  V30 5 1 4 6 CFG=1
M  V30 6 1 4 7
M  V30 7 1 5 8
M  V30 8 1 8 9
M  V30 9 1 9 10
M  V30 10 1 9 11
M  V30 END BOND
M  V30 BEGIN COLLECTION
M  V30 MDLV30/STERAC1 ATOMS=(1 4)
M  V30 END COLLECTION
M  V30 END CTAB
M  END
>  <Molecule Name>
Lactic acid, iso-amyl ester

>  <Activity Label>
0

>  <SMILES>
CC(C)CCOC(C(C)O)=O

>  <Molecular Formula>
C8H16O3

>  <InChIKey>
CRORGGSWAKIXSA-UHFFFAOYSA-N

>  <Repellency>
Inactive

>  <Reference DOI>
10.3390/toxics11100837

>  <Target Organism>
Not applied

$$$$
Compound 240
Actelion Java MolfileCreator 2.0

  0  0  0  0  0  0              0 V3000
M  V30 BEGIN CTAB
M  V30 COUNTS 11 10 0 0 0
M  V30 BEGIN ATOM
M  V30 1 O 0.0 0.0 0.0 0
M  V30 2 C 0.0 -1.4995 0.0 0
M  V30 3 O -1.2988 -2.2552 0.0 0
M  V30 4 C 1.2988 -2.2552 0.0 0
M  V30 5 C -2.5976 -1.5113 0.0 0
M  V30 6 C 2.5976 -1.5113 0.0 0
M  V30 7 C -3.8964 -2.267 0.0 0
M  V30 8 O 3.8964 -2.267 0.0 0
M  V30 9 C -5.1953 -1.5231 0.0 0
M  V30 10 C 5.1953 -1.5231 0.0 0
M  V30 11 C -6.4941 -2.2788 0.0 0
M  V30 END ATOM
M  V30 BEGIN BOND
M  V30 1 2 1 2
M  V30 2 1 2 3
M  V30 3 1 2 4
M  V30 4 1 3 5
M  V30 5 1 4 6
M  V30 6 1 5 7
M  V30 7 1 6 8
M  V30 8 1 7 9
M  V30 9 1 8 10
M  V30 10 1 9 11
M  V30 END BOND
M  V30 END CTAB
M  END
>  <Molecule Name>
beta-Methoxypropionic acid, n-butyl ester

>  <Activity Label>
0

>  <SMILES>
CCCCOC(CCOC)=O

>  <Molecular Formula>
C8H16O3

>  <InChIKey>
RRIRSNXZGJWTQM-UHFFFAOYSA-N

>  <Repellency>
Inactive

>  <Reference DOI>
10.3390/toxics11100837

>  <Target Organism>
Not applied

$$$$
Compound 241
Actelion Java MolfileCreator 2.0

  0  0  0  0  0  0              0 V3000
M  V30 BEGIN CTAB
M  V30 COUNTS 11 10 0 0 0
M  V30 BEGIN ATOM
M  V30 1 O 0.0 0.0 0.0 0
M  V30 2 C 0.0 1.4998 0.0 0
M  V30 3 O -1.2991 2.2439 0.0 0
M  V30 4 C 1.2991 2.2439 0.0 0
M  V30 5 C -2.5982 1.488 0.0 0
M  V30 6 C 2.5982 1.488 0.0 0
M  V30 7 C -3.8973 2.232 0.0 0
M  V30 8 O 3.8973 2.232 0.0 0
M  V30 9 C -3.8973 3.7319 0.0 0
M  V30 10 C -5.1964 1.4762 0.0 0
M  V30 11 C 5.1964 1.4762 0.0 0
M  V30 END ATOM
M  V30 BEGIN BOND
M  V30 1 2 1 2
M  V30 2 1 2 3
M  V30 3 1 2 4
M  V30 4 1 3 5
M  V30 5 1 4 6
M  V30 6 1 5 7
M  V30 7 1 6 8
M  V30 8 1 7 9
M  V30 9 1 7 10
M  V30 10 1 8 11
M  V30 END BOND
M  V30 END CTAB
M  END
>  <Molecule Name>
beta-Methoxypropionic acid, iso-butyl ester

>  <Activity Label>
0

>  <SMILES>
CC(C)COC(CCOC)=O

>  <Molecular Formula>
C8H16O3

>  <InChIKey>
BNIUEJUHBMPWKI-UHFFFAOYSA-N

>  <Repellency>
Inactive

>  <Reference DOI>
10.3390/toxics11100837

>  <Target Organism>
Not applied

$$$$
Compound 242
Actelion Java MolfileCreator 2.0

  0  0  0  0  0  0              0 V3000
M  V30 BEGIN CTAB
M  V30 COUNTS 11 10 0 0 0
M  V30 BEGIN ATOM
M  V30 1 O 0.0 0.0 0.0 0
M  V30 2 C 0.0 -1.4992 0.0 0
M  V30 3 O -1.2985 -2.2548 0.0 0
M  V30 4 C 1.2985 -2.2548 0.0 0
M  V30 5 C -2.5971 -1.511 0.0 0
M  V30 6 C 2.5971 -1.511 0.0 0
M  V30 7 C -3.8957 -2.2666 0.0 0
M  V30 8 O 3.8957 -2.2666 0.0 0
M  V30 9 C 2.5971 -0.0118 0.0 0
M  V30 10 C -5.1943 -1.5228 0.0 0
M  V30 11 C -6.4929 -2.2784 0.0 0
M  V30 END ATOM
M  V30 BEGIN BOND
M  V30 1 2 1 2
M  V30 2 1 2 3
M  V30 3 1 2 4
M  V30 4 1 3 5
M  V30 5 1 4 6
M  V30 6 1 5 7
M  V30 7 2 6 8
M  V30 8 1 6 9
M  V30 9 2 7 10 CFG=2
M  V30 10 1 10 11
M  V30 END BOND
M  V30 END CTAB
M  END
>  <Molecule Name>
Acetoacetic acid, crotyl ester

>  <Activity Label>
0

>  <SMILES>
CC=CCOC(CC(C)=O)=O

>  <Molecular Formula>
C8H12O3

>  <InChIKey>
DIHQENJQJILKQM-UHFFFAOYSA-N

>  <Repellency>
Inactive

>  <Reference DOI>
10.3390/toxics11100837

>  <Target Organism>
Not applied

$$$$
Compound 243
Actelion Java MolfileCreator 2.0

  0  0  0  0  0  0              0 V3000
M  V30 BEGIN CTAB
M  V30 COUNTS 11 10 0 0 0
M  V30 BEGIN ATOM
M  V30 1 N 0.0 0.0 0.0 0
M  V30 2 C -1.3004 -0.7475 0.0 0
M  V30 3 C -2.6009 -1.495 0.0 0
M  V30 4 C -3.9014 -0.7475 0.0 0
M  V30 5 C -5.2018 -1.495 0.0 0
M  V30 6 C -6.5023 -0.7475 0.0 0
M  V30 7 C -7.8028 -1.495 0.0 0
M  V30 8 C -9.1032 -0.7475 0.0 0
M  V30 9 C -10.4037 -1.495 0.0 0
M  V30 10 C -11.7042 -0.7475 0.0 0
M  V30 11 C -13.0047 -1.495 0.0 0
M  V30 END ATOM
M  V30 BEGIN BOND
M  V30 1 3 1 2
M  V30 2 1 2 3
M  V30 3 1 3 4
M  V30 4 1 4 5
M  V30 5 1 5 6
M  V30 6 1 6 7
M  V30 7 1 7 8
M  V30 8 1 8 9
M  V30 9 1 9 10
M  V30 10 1 10 11
M  V30 END BOND
M  V30 END CTAB
M  END
>  <Molecule Name>
n-Decane nitrile

>  <Activity Label>
0

>  <SMILES>
CCCCCCCCCC#N

>  <Molecular Formula>
C10H19N

>  <InChIKey>
HBZDPWBWBJMYRY-UHFFFAOYSA-N

>  <Repellency>
Inactive

>  <Reference DOI>
10.3390/toxics11100837

>  <Target Organism>
Not applied

$$$$
Compound 244
Actelion Java MolfileCreator 2.0

  0  0  0  0  0  0              0 V3000
M  V30 BEGIN CTAB
M  V30 COUNTS 11 10 0 0 0
M  V30 BEGIN ATOM
M  V30 1 N 0.0 0.0 0.0 0
M  V30 2 C -1.2985 -0.7555 0.0 0
M  V30 3 C -2.5971 -1.511 0.0 0
M  V30 4 C -2.5971 -3.0103 0.0 0
M  V30 5 C -3.8957 -0.7673 0.0 0
M  V30 6 C -3.8957 -3.7659 0.0 0
M  V30 7 C -1.2985 -3.7659 0.0 0
M  V30 8 C -3.8957 0.7319 0.0 0
M  V30 9 C -5.1943 -3.0221 0.0 0
M  V30 10 C -5.1943 1.4756 0.0 0
M  V30 11 C -6.4929 -3.7777 0.0 0
M  V30 END ATOM
M  V30 BEGIN BOND
M  V30 1 3 1 2
M  V30 2 1 2 3
M  V30 3 2 3 4 CFG=2
M  V30 4 1 3 5
M  V30 5 1 4 6
M  V30 6 1 4 7
M  V30 7 1 5 8
M  V30 8 1 6 9
M  V30 9 1 8 10
M  V30 10 1 9 11
M  V30 END BOND
M  V30 END CTAB
M  END
>  <Molecule Name>
3-Methyl-2-propyl-2-hexenenitrile

>  <Activity Label>
0

>  <SMILES>
CCCC(C)=C(CCC)C#N

>  <Molecular Formula>
C10H17N

>  <InChIKey>
GUHOEWLQDDUDHZ-UHFFFAOYSA-N

>  <Repellency>
Inactive

>  <Reference DOI>
10.3390/toxics11100837

>  <Target Organism>
Not applied

$$$$
Compound 245
Actelion Java MolfileCreator 2.0

  0  0  0  0  0  0              0 V3000
M  V30 BEGIN CTAB
M  V30 COUNTS 11 10 0 0 0
M  V30 BEGIN ATOM
M  V30 1 N 0.0 0.0 0.0 0
M  V30 2 C -1.2983 -0.7553 0.0 0
M  V30 3 C -2.5966 -1.5107 0.0 0
M  V30 4 C -2.5966 -3.0097 0.0 0
M  V30 5 C -3.8949 -0.7671 0.0 0
M  V30 6 C -3.8949 -3.7651 0.0 0
M  V30 7 C -1.2983 -3.7651 0.0 0
M  V30 8 C -5.1932 -3.0215 0.0 0
M  V30 9 C 0.0 -3.0215 0.0 0
M  V30 10 C -6.4916 -3.7769 0.0 0
M  V30 11 C 1.2983 -3.7769 0.0 0
M  V30 END ATOM
M  V30 BEGIN BOND
M  V30 1 3 1 2
M  V30 2 1 2 3
M  V30 3 2 3 4
M  V30 4 1 3 5
M  V30 5 1 4 6
M  V30 6 1 4 7
M  V30 7 1 6 8
M  V30 8 1 7 9
M  V30 9 1 8 10
M  V30 10 1 9 11
M  V30 END BOND
M  V30 END CTAB
M  END
>  <Molecule Name>
2-Methyl-3-propyl-2-hexenenitrile

>  <Activity Label>
0

>  <SMILES>
CCCC(CCC)=C(C)C#N

>  <Molecular Formula>
C10H17N

>  <InChIKey>
USKCEFASUOAVIP-UHFFFAOYSA-N

>  <Repellency>
Inactive

>  <Reference DOI>
10.3390/toxics11100837

>  <Target Organism>
Not applied

$$$$
Compound 246
Actelion Java MolfileCreator 2.0

  0  0  0  0  0  0              0 V3000
M  V30 BEGIN CTAB
M  V30 COUNTS 11 10 0 0 0
M  V30 BEGIN ATOM
M  V30 1 N 0.0 0.0 0.0 0
M  V30 2 C -1.298 -0.7552 0.0 0
M  V30 3 C -2.5961 -1.5104 0.0 0
M  V30 4 C -2.5961 -3.0091 0.0 0
M  V30 5 C -3.8942 -0.767 0.0 0
M  V30 6 C -1.298 -3.7644 0.0 0
M  V30 7 C -3.8942 -3.7644 0.0 0
M  V30 8 C -3.8942 0.7316 0.0 0
M  V30 9 C -5.1923 -1.5222 0.0 0
M  V30 10 C 0.0 -3.0209 0.0 0
M  V30 11 C 1.298 -3.7762 0.0 0
M  V30 END ATOM
M  V30 BEGIN BOND
M  V30 1 3 1 2
M  V30 2 1 2 3
M  V30 3 2 3 4 CFG=2
M  V30 4 1 3 5
M  V30 5 1 4 6
M  V30 6 1 4 7
M  V30 7 1 5 8
M  V30 8 1 5 9
M  V30 9 1 6 10
M  V30 10 1 10 11
M  V30 END BOND
M  V30 END CTAB
M  END
>  <Molecule Name>
2-iso-Propyl-3-methyl-2-hexenenitrile

>  <Activity Label>
0

>  <SMILES>
CCCC(C)=C(C(C)C)C#N

>  <Molecular Formula>
C10H17N

>  <InChIKey>
VCUGWCHJBAIPCO-UHFFFAOYSA-N

>  <Repellency>
Inactive

>  <Reference DOI>
10.3390/toxics11100837

>  <Target Organism>
Not applied

$$$$
Compound 247
Actelion Java MolfileCreator 2.0

  0  0  0  0  0  0              0 V3000
M  V30 BEGIN CTAB
M  V30 COUNTS 11 10 0 0 0
M  V30 BEGIN ATOM
M  V30 1 O 0.0 0.0 0.0 0
M  V30 2 C -1.2985 0.7437 0.0 0
M  V30 3 O -2.5971 -0.0118 0.0 0
M  V30 4 C -1.2985 2.243 0.0 0
M  V30 5 C -3.8957 0.7319 0.0 0
M  V30 6 C 0.0 2.9985 0.0 0
M  V30 7 C -2.5971 2.9867 0.0 0
M  V30 8 C -5.1943 -0.0236 0.0 0
M  V30 9 N 1.2985 3.7541 0.0 0
M  V30 10 C -3.8957 2.2312 0.0 0
M  V30 11 C -2.5971 4.486 0.0 0
M  V30 END ATOM
M  V30 BEGIN BOND
M  V30 1 2 1 2
M  V30 2 1 2 3
M  V30 3 1 2 4
M  V30 4 1 3 5
M  V30 5 1 4 6
M  V30 6 2 4 7
M  V30 7 1 5 8
M  V30 8 3 6 9
M  V30 9 1 7 10
M  V30 10 1 7 11
M  V30 END BOND
M  V30 END CTAB
M  END
>  <Molecule Name>
iso-Propylidenecyanoacetic acid, ethyl ester

>  <Activity Label>
0

>  <SMILES>
CCOC(C(C#N)=C(C)C)=O

>  <Molecular Formula>
C8H11NO2

>  <InChIKey>
PZMDAADKKAXROL-UHFFFAOYSA-N

>  <Repellency>
Inactive

>  <Reference DOI>
10.3390/toxics11100837

>  <Target Organism>
Not applied

$$$$
Compound 248
Actelion Java MolfileCreator 2.0

  0  0  0  0  0  0              0 V3000
M  V30 BEGIN CTAB
M  V30 COUNTS 11 10 0 0 0
M  V30 BEGIN ATOM
M  V30 1 O 0.0 0.0 0.0 0
M  V30 2 C 1.2985 -0.7555 0.0 0
M  V30 3 N 1.2985 -2.2548 0.0 0
M  V30 4 C 2.5971 -0.0118 0.0 0
M  V30 5 C 2.5971 -3.0103 0.0 0
M  V30 6 C 0.0 -3.0103 0.0 0
M  V30 7 C 2.5971 1.4874 0.0 0
M  V30 8 C 3.8957 -2.2666 0.0 0
M  V30 9 C -1.2985 -2.2666 0.0 0
M  V30 10 C 5.1943 -3.0221 0.0 0
M  V30 11 C -2.5971 -3.0221 0.0 0
M  V30 END ATOM
M  V30 BEGIN BOND
M  V30 1 2 1 2
M  V30 2 1 2 3
M  V30 3 1 2 4
M  V30 4 1 3 5
M  V30 5 1 3 6
M  V30 6 1 4 7
M  V30 7 1 5 8
M  V30 8 1 6 9
M  V30 9 1 8 10
M  V30 10 1 9 11
M  V30 END BOND
M  V30 END CTAB
M  END
>  <Molecule Name>
N,N-Dipropylpropionamide

>  <Activity Label>
0

>  <SMILES>
CCCN(CCC)C(CC)=O

>  <Molecular Formula>
C9H19NO

>  <InChIKey>
ARCMPHHHUFVAOI-UHFFFAOYSA-N

>  <Repellency>
Inactive

>  <Reference DOI>
10.3390/toxics11100837

>  <Target Organism>
Not applied

$$$$
Compound 249
Actelion Java MolfileCreator 2.0

  0  0  0  0  0  0              0 V3000
M  V30 BEGIN CTAB
M  V30 COUNTS 11 11 0 0 0
M  V30 BEGIN ATOM
M  V30 1 C 0.0 0.0 0.0 0
M  V30 2 C -1.3002 0.7565 0.0 0
M  V30 3 C 0.0 -1.5012 0.0 0
M  V30 4 C 1.3002 0.7446 0.0 0
M  V30 5 C -2.6005 0.0118 0.0 0
M  V30 6 C -1.3002 -2.2459 0.0 0
M  V30 7 C 2.6005 0.0 0.0 0
M  V30 8 C 2.0449 2.0449 0.0 0
M  V30 9 C 0.5555 2.0449 0.0 0
M  V30 10 C -2.6005 -1.4893 0.0 0
M  V30 11 C 3.9007 0.7446 0.0 0
M  V30 END ATOM
M  V30 BEGIN BOND
M  V30 1 2 1 2
M  V30 2 1 1 3
M  V30 3 1 1 4
M  V30 4 1 2 5
M  V30 5 2 3 6
M  V30 6 1 4 7
M  V30 7 1 4 8
M  V30 8 1 4 9
M  V30 9 2 5 10
M  V30 10 1 7 11
M  V30 11 1 6 10
M  V30 END BOND
M  V30 END CTAB
M  END
>  <Molecule Name>
tert-Amylbenzene

>  <Activity Label>
0

>  <SMILES>
CCC(C)(C)c1ccccc1

>  <Molecular Formula>
C11H16

>  <InChIKey>
QHTJSSMHBLGUHV-UHFFFAOYSA-N

>  <Repellency>
Inactive

>  <Reference DOI>
10.3390/toxics11100837

>  <Target Organism>
Not applied

$$$$
Compound 250
Actelion Java MolfileCreator 2.0

  0  0  0  0  0  0              0 V3000
M  V30 BEGIN CTAB
M  V30 COUNTS 11 11 0 0 0
M  V30 BEGIN ATOM
M  V30 1 Cl 0.0 0.0 0.0 0
M  V30 2 C 1.3016 0.7454 0.0 0
M  V30 3 C 1.3016 2.2483 0.0 0
M  V30 4 C 2.6033 0.0 0.0 0
M  V30 5 C 2.6033 2.9938 0.0 0
M  V30 6 C 3.9049 0.7454 0.0 0
M  V30 7 C 3.9049 2.2364 0.0 0
M  V30 8 C 5.2066 2.9819 0.0 0
M  V30 9 Cl 4.4611 4.2836 0.0 0
M  V30 10 Cl 6.5083 3.7274 0.0 0
M  V30 11 Cl 5.9521 1.6803 0.0 0
M  V30 END ATOM
M  V30 BEGIN BOND
M  V30 1 1 1 2
M  V30 2 2 2 3
M  V30 3 1 2 4
M  V30 4 1 3 5
M  V30 5 2 4 6
M  V30 6 2 5 7
M  V30 7 1 7 8
M  V30 8 1 8 9
M  V30 9 1 8 10
M  V30 10 1 8 11
M  V30 11 1 6 7
M  V30 END BOND
M  V30 END CTAB
M  END
>  <Molecule Name>
alpha,alpha,alpha,4-Tetrachlorotoluene

>  <Activity Label>
0

>  <SMILES>
ClC(c(cc1)ccc1Cl)(Cl)Cl

>  <Molecular Formula>
C7H4Cl4

>  <InChIKey>
LVZPKYYPPLUECL-UHFFFAOYSA-N

>  <Repellency>
Inactive

>  <Reference DOI>
10.3390/toxics11100837

>  <Target Organism>
Not applied

$$$$
Compound 251
Actelion Java MolfileCreator 2.0

  0  0  0  0  0  0              0 V3000
M  V30 BEGIN CTAB
M  V30 COUNTS 11 11 0 0 0
M  V30 BEGIN ATOM
M  V30 1 Cl 0.0 0.0 0.0 0
M  V30 2 C 0.0 -1.5009 0.0 0
M  V30 3 C 1.3 -2.2573 0.0 0
M  V30 4 C -1.3 -2.2455 0.0 0
M  V30 5 C 1.3 -3.7583 0.0 0
M  V30 6 C 2.6 -1.5127 0.0 0
M  V30 7 C -1.3 -3.7464 0.0 0
M  V30 8 C 0.0 -4.5028 0.0 0
M  V30 9 Cl 1.8555 -0.2127 0.0 0
M  V30 10 Cl 3.9001 -0.7682 0.0 0
M  V30 11 Cl 3.3446 -2.8128 0.0 0
M  V30 END ATOM
M  V30 BEGIN BOND
M  V30 1 1 1 2
M  V30 2 2 2 3
M  V30 3 1 2 4
M  V30 4 1 3 5
M  V30 5 1 3 6
M  V30 6 2 4 7
M  V30 7 2 5 8
M  V30 8 1 6 9
M  V30 9 1 6 10
M  V30 10 1 6 11
M  V30 11 1 7 8
M  V30 END BOND
M  V30 END CTAB
M  END
>  <Molecule Name>
alpha,alpha,alpha,2-Tetrachlorotoluene

>  <Activity Label>
0

>  <SMILES>
ClC(c(cccc1)c1Cl)(Cl)Cl

>  <Molecular Formula>
C7H4Cl4

>  <InChIKey>
MFHPYLFZSCSNST-UHFFFAOYSA-N

>  <Repellency>
Inactive

>  <Reference DOI>
10.3390/toxics11100837

>  <Target Organism>
Not applied

$$$$
Compound 252
Actelion Java MolfileCreator 2.0

  0  0  0  0  0  0              0 V3000
M  V30 BEGIN CTAB
M  V30 COUNTS 11 11 0 0 0
M  V30 BEGIN ATOM
M  V30 1 Cl 0.0 0.0 0.0 0
M  V30 2 C 0.0 -1.5007 0.0 0
M  V30 3 C -1.2998 -2.2569 0.0 0
M  V30 4 C 1.2998 -2.2451 0.0 0
M  V30 5 C -1.2998 -3.7576 0.0 0
M  V30 6 C -2.5996 -1.5125 0.0 0
M  V30 7 C 1.2998 -3.7458 0.0 0
M  V30 8 C 0.0 -4.5021 0.0 0
M  V30 9 C -2.5996 -0.0118 0.0 0
M  V30 10 C -3.8994 -2.2569 0.0 0
M  V30 11 C 2.5996 -4.4902 0.0 0
M  V30 END ATOM
M  V30 BEGIN BOND
M  V30 1 1 1 2
M  V30 2 2 2 3
M  V30 3 1 2 4
M  V30 4 1 3 5
M  V30 5 1 3 6
M  V30 6 2 4 7
M  V30 7 2 5 8
M  V30 8 1 6 9
M  V30 9 1 6 10
M  V30 10 1 7 11
M  V30 11 1 7 8
M  V30 END BOND
M  V30 END CTAB
M  END
>  <Molecule Name>
2-Chloro-p-cymene

>  <Activity Label>
0

>  <SMILES>
CC(C)c(ccc(C)c1)c1Cl

>  <Molecular Formula>
C10H13Cl

>  <InChIKey>
MGVNITAKTROLJO-UHFFFAOYSA-N

>  <Repellency>
Inactive

>  <Reference DOI>
10.3390/toxics11100837

>  <Target Organism>
Not applied

$$$$
Compound 253
Actelion Java MolfileCreator 2.0

  0  0  0  0  0  0              0 V3000
M  V30 BEGIN CTAB
M  V30 COUNTS 11 11 0 0 0
M  V30 BEGIN ATOM
M  V30 1 O 0.0 0.0 0.0 0
M  V30 2 C -1.3002 -0.7446 0.0 0
M  V30 3 C 1.3002 -0.7446 0.0 0
M  V30 4 C -2.6005 0.0118 0.0 0
M  V30 5 C -1.3002 -2.2459 0.0 0
M  V30 6 C 2.6005 0.0 0.0 0
M  V30 7 C -3.9007 -0.7328 0.0 0
M  V30 8 C -2.6005 -2.9906 0.0 0
M  V30 9 O 3.9007 -0.7446 0.0 0
M  V30 10 C -3.9007 -2.234 0.0 0
M  V30 11 C 5.201 0.0 0.0 0
M  V30 END ATOM
M  V30 BEGIN BOND
M  V30 1 1 1 2
M  V30 2 1 1 3
M  V30 3 2 2 4
M  V30 4 1 2 5
M  V30 5 1 3 6
M  V30 6 1 4 7
M  V30 7 2 5 8
M  V30 8 1 6 9
M  V30 9 2 7 10
M  V30 10 1 9 11
M  V30 11 1 8 10
M  V30 END BOND
M  V30 END CTAB
M  END
>  <Molecule Name>
Beta-Methoxyphenetole

>  <Activity Label>
0

>  <SMILES>
COCCOc1ccccc1

>  <Molecular Formula>
C9H12O2

>  <InChIKey>
IFQVEYUAIINTRX-UHFFFAOYSA-N

>  <Repellency>
Inactive

>  <Reference DOI>
10.3390/toxics11100837

>  <Target Organism>
Not applied

$$$$
Compound 254
Actelion Java MolfileCreator 2.0

  0  0  0  0  0  0              0 V3000
M  V30 BEGIN CTAB
M  V30 COUNTS 11 11 0 0 0
M  V30 BEGIN ATOM
M  V30 1 O 0.0 0.0 0.0 0
M  V30 2 C 0.0 1.4998 0.0 0 CFG=2
M  V30 3 C -1.2991 2.2439 0.0 0
M  V30 4 C 1.2991 2.2439 0.0 0
M  V30 5 O -2.5982 1.488 0.0 0
M  V30 6 C 2.5982 1.488 0.0 0
M  V30 7 C 2.5982 -0.0118 0.0 0
M  V30 8 C 3.8973 2.2321 0.0 0
M  V30 9 C 3.8973 -0.7676 0.0 0
M  V30 10 C 5.1964 1.4762 0.0 0
M  V30 11 C 5.1964 -0.0236 0.0 0
M  V30 END ATOM
M  V30 BEGIN BOND
M  V30 1 1 2 1 CFG=3
M  V30 2 1 2 3
M  V30 3 1 2 4
M  V30 4 1 3 5
M  V30 5 1 4 6
M  V30 6 2 6 7
M  V30 7 1 6 8
M  V30 8 1 7 9
M  V30 9 2 8 10
M  V30 10 2 9 11
M  V30 11 1 10 11
M  V30 END BOND
M  V30 BEGIN COLLECTION
M  V30 MDLV30/STERAC1 ATOMS=(1 2)
M  V30 END COLLECTION
M  V30 END CTAB
M  END
>  <Molecule Name>
3-Phenyl-1,2-propanediol

>  <Activity Label>
0

>  <SMILES>
OCC(Cc1ccccc1)O

>  <Molecular Formula>
C9H12O2

>  <InChIKey>
JHWQMXKQJVAWKI-UHFFFAOYSA-N

>  <Repellency>
Inactive

>  <Reference DOI>
10.3390/toxics11100837

>  <Target Organism>
Not applied

$$$$
Compound 255
Actelion Java MolfileCreator 2.0

  0  0  0  0  0  0              0 V3000
M  V30 BEGIN CTAB
M  V30 COUNTS 11 11 0 0 0
M  V30 BEGIN ATOM
M  V30 1 O 0.0 0.0 0.0 0
M  V30 2 C 0.0 1.5009 0.0 0
M  V30 3 O -1.3 2.2455 0.0 0
M  V30 4 C 1.3 2.2455 0.0 0
M  V30 5 C -2.6 1.5009 0.0 0
M  V30 6 C 2.6 1.5009 0.0 0
M  V30 7 C -3.9001 2.2573 0.0 0
M  V30 8 C -2.6 0.0 0.0 0
M  V30 9 C -5.2001 1.5127 0.0 0
M  V30 10 C -3.9001 -0.7445 0.0 0
M  V30 11 C -5.2001 0.0118 0.0 0
M  V30 END ATOM
M  V30 BEGIN BOND
M  V30 1 2 1 2
M  V30 2 1 2 3
M  V30 3 1 2 4
M  V30 4 1 3 5
M  V30 5 2 4 6
M  V30 6 1 5 7
M  V30 7 1 5 8
M  V30 8 1 7 9
M  V30 9 1 8 10
M  V30 10 1 9 11
M  V30 11 1 10 11
M  V30 END BOND
M  V30 END CTAB
M  END
>  <Molecule Name>
Acrylic acid, cyclohexyl ester

>  <Activity Label>
0

>  <SMILES>
C=CC(OC1CCCCC1)=O

>  <Molecular Formula>
C9H14O2

>  <InChIKey>
KBLWLMPSVYBVDK-UHFFFAOYSA-N

>  <Repellency>
Inactive

>  <Reference DOI>
10.3390/toxics11100837

>  <Target Organism>
Not applied

$$$$
Compound 256
Actelion Java MolfileCreator 2.0

  0  0  0  0  0  0              0 V3000
M  V30 BEGIN CTAB
M  V30 COUNTS 11 11 0 0 0
M  V30 BEGIN ATOM
M  V30 1 O 0.0 0.0 0.0 0
M  V30 2 C 0.0 1.5009 0.0 0
M  V30 3 O -1.3 2.2455 0.0 0
M  V30 4 C 1.3 2.2455 0.0 0
M  V30 5 C -2.6 1.5009 0.0 0
M  V30 6 C 2.6 1.5009 0.0 0
M  V30 7 C -3.9001 2.2573 0.0 0
M  V30 8 C -2.6 0.0 0.0 0
M  V30 9 C -5.2001 1.5127 0.0 0
M  V30 10 C -3.9001 -0.7445 0.0 0
M  V30 11 C -5.2001 0.0118 0.0 0
M  V30 END ATOM
M  V30 BEGIN BOND
M  V30 1 2 1 2
M  V30 2 1 2 3
M  V30 3 1 2 4
M  V30 4 1 3 5
M  V30 5 1 4 6
M  V30 6 2 5 7
M  V30 7 1 5 8
M  V30 8 1 7 9
M  V30 9 2 8 10
M  V30 10 2 9 11
M  V30 11 1 10 11
M  V30 END BOND
M  V30 END CTAB
M  END
>  <Molecule Name>
Propionic acid, phenyl ester

>  <Activity Label>
0

>  <SMILES>
CCC(Oc1ccccc1)=O

>  <Molecular Formula>
C9H10O2

>  <InChIKey>
DYUMLJSJISTVPV-UHFFFAOYSA-N

>  <Repellency>
Inactive

>  <Reference DOI>
10.3390/toxics11100837

>  <Target Organism>
Not applied

$$$$
Compound 257
Actelion Java MolfileCreator 2.0

  0  0  0  0  0  0              0 V3000
M  V30 BEGIN CTAB
M  V30 COUNTS 11 11 0 0 0
M  V30 BEGIN ATOM
M  V30 1 O 0.0 0.0 0.0 0
M  V30 2 C 0.0 -1.4993 0.0 0
M  V30 3 O -1.2986 -2.2549 0.0 0
M  V30 4 C 1.2986 -2.2549 0.0 0
M  V30 5 C -2.5972 -1.5111 0.0 0
M  V30 6 C 1.2986 -3.7542 0.0 0
M  V30 7 C 2.5972 -1.5111 0.0 0
M  V30 8 C -3.8959 -2.2667 0.0 0
M  V30 9 C 2.5972 -4.5098 0.0 0
M  V30 10 C 3.8959 -2.2667 0.0 0
M  V30 11 C 3.8959 -3.766 0.0 0
M  V30 END ATOM
M  V30 BEGIN BOND
M  V30 1 2 1 2
M  V30 2 1 2 3
M  V30 3 1 2 4
M  V30 4 1 3 5
M  V30 5 2 4 6
M  V30 6 1 4 7
M  V30 7 1 5 8
M  V30 8 1 6 9
M  V30 9 2 7 10
M  V30 10 2 9 11
M  V30 11 1 10 11
M  V30 END BOND
M  V30 END CTAB
M  END
>  <Molecule Name>
Benzoic acid, ethyl ester

>  <Activity Label>
0

>  <SMILES>
CCOC(c1ccccc1)=O

>  <Molecular Formula>
C9H10O2

>  <InChIKey>
MTZQAGJQAFMTAQ-UHFFFAOYSA-N

>  <Repellency>
Inactive

>  <Reference DOI>
10.3390/toxics11100837

>  <Target Organism>
Not applied

$$$$
Compound 258
Actelion Java MolfileCreator 2.0

  0  0  0  0  0  0              0 V3000
M  V30 BEGIN CTAB
M  V30 COUNTS 11 11 0 0 0
M  V30 BEGIN ATOM
M  V30 1 O 0.0 0.0 0.0 0
M  V30 2 C 0.0 -1.4993 0.0 0
M  V30 3 O -1.2986 -2.2549 0.0 0
M  V30 4 C 1.2986 -2.2549 0.0 0
M  V30 5 C -2.5972 -1.5111 0.0 0
M  V30 6 C 1.2986 -3.7542 0.0 0
M  V30 7 C 2.5972 -1.5111 0.0 0
M  V30 8 C -3.8959 -2.2667 0.0 0
M  V30 9 C 2.5972 -4.5098 0.0 0
M  V30 10 C 3.8959 -2.2667 0.0 0
M  V30 11 C 3.8959 -3.766 0.0 0
M  V30 END ATOM
M  V30 BEGIN BOND
M  V30 1 2 1 2
M  V30 2 1 2 3
M  V30 3 1 2 4
M  V30 4 1 3 5
M  V30 5 1 4 6
M  V30 6 1 4 7
M  V30 7 1 5 8
M  V30 8 1 6 9
M  V30 9 1 7 10
M  V30 10 1 9 11
M  V30 11 1 10 11
M  V30 END BOND
M  V30 END CTAB
M  END
>  <Molecule Name>
Hexahydrobenzoic acid, ethyl ester

>  <Activity Label>
0

>  <SMILES>
CCOC(C1CCCCC1)=O

>  <Molecular Formula>
C9H16O2

>  <InChIKey>
JJOYCHKVKWDMEA-UHFFFAOYSA-N

>  <Repellency>
Inactive

>  <Reference DOI>
10.3390/toxics11100837

>  <Target Organism>
Not applied

$$$$
Compound 259
Actelion Java MolfileCreator 2.0

  0  0  0  0  0  0              0 V3000
M  V30 BEGIN CTAB
M  V30 COUNTS 11 11 0 0 0
M  V30 BEGIN ATOM
M  V30 1 O 0.0 0.0 0.0 0
M  V30 2 C 0.0 1.4998 0.0 0
M  V30 3 O -1.2991 2.2439 0.0 0
M  V30 4 C 1.2991 2.2439 0.0 0
M  V30 5 C -2.5982 1.488 0.0 0
M  V30 6 C 2.5982 1.488 0.0 0
M  V30 7 C 2.5982 -0.0118 0.0 0
M  V30 8 C 3.8973 2.2321 0.0 0
M  V30 9 C 3.8973 -0.7676 0.0 0
M  V30 10 C 5.1964 1.4762 0.0 0
M  V30 11 C 5.1964 -0.0236 0.0 0
M  V30 END ATOM
M  V30 BEGIN BOND
M  V30 1 2 1 2
M  V30 2 1 2 3
M  V30 3 1 2 4
M  V30 4 1 3 5
M  V30 5 1 4 6
M  V30 6 2 6 7
M  V30 7 1 6 8
M  V30 8 1 7 9
M  V30 9 2 8 10
M  V30 10 2 9 11
M  V30 11 1 10 11
M  V30 END BOND
M  V30 END CTAB
M  END
>  <Molecule Name>
Phenylacetic acid, methyl ester

>  <Activity Label>
0

>  <SMILES>
COC(Cc1ccccc1)=O

>  <Molecular Formula>
C9H10O2

>  <InChIKey>
CRZQGDNQQAALAY-UHFFFAOYSA-N

>  <Repellency>
Inactive

>  <Reference DOI>
10.3390/toxics11100837

>  <Target Organism>
Not applied

$$$$
Compound 260
Actelion Java MolfileCreator 2.0

  0  0  0  0  0  0              0 V3000
M  V30 BEGIN CTAB
M  V30 COUNTS 11 11 0 0 0
M  V30 BEGIN ATOM
M  V30 1 O 0.0 0.0 0.0 0
M  V30 2 C 0.0 1.4998 0.0 0
M  V30 3 O -1.2991 2.2439 0.0 0
M  V30 4 C 1.2991 2.2439 0.0 0
M  V30 5 C -2.5982 1.488 0.0 0
M  V30 6 C 2.5982 1.488 0.0 0
M  V30 7 C 2.5982 -0.0118 0.0 0
M  V30 8 C 3.8973 2.2321 0.0 0
M  V30 9 C 3.8973 -0.7676 0.0 0
M  V30 10 C 5.1964 1.4762 0.0 0
M  V30 11 C 5.1964 -0.0236 0.0 0
M  V30 END ATOM
M  V30 BEGIN BOND
M  V30 1 2 1 2
M  V30 2 1 2 3
M  V30 3 1 2 4
M  V30 4 1 3 5
M  V30 5 1 4 6
M  V30 6 1 6 7
M  V30 7 1 6 8
M  V30 8 1 7 9
M  V30 9 1 8 10
M  V30 10 1 9 11
M  V30 11 1 10 11
M  V30 END BOND
M  V30 END CTAB
M  END
>  <Molecule Name>
Cyclohexylacetic acid, methyl ester

>  <Activity Label>
0

>  <SMILES>
COC(CC1CCCCC1)=O

>  <Molecular Formula>
C9H16O2

>  <InChIKey>
IMXBRVLCKXGWSS-UHFFFAOYSA-N

>  <Repellency>
Inactive

>  <Reference DOI>
10.3390/toxics11100837

>  <Target Organism>
Not applied

$$$$
Compound 261
Actelion Java MolfileCreator 2.0

  0  0  0  0  0  0              0 V3000
M  V30 BEGIN CTAB
M  V30 COUNTS 11 11 0 0 0
M  V30 BEGIN ATOM
M  V30 1 O 0.0 0.0 0.0 0
M  V30 2 C 0.0 -1.5009 0.0 0
M  V30 3 O -1.3 -2.2455 0.0 0
M  V30 4 C 1.3 -2.2455 0.0 0
M  V30 5 C -2.6 -1.5009 0.0 0
M  V30 6 C -3.9001 -2.2455 0.0 0
M  V30 7 C -5.2001 -1.4891 0.0 0
M  V30 8 C -3.9001 -3.7464 0.0 0
M  V30 9 C -6.5002 -2.2337 0.0 0
M  V30 10 C -5.2001 -4.491 0.0 0
M  V30 11 C -6.5002 -3.7346 0.0 0
M  V30 END ATOM
M  V30 BEGIN BOND
M  V30 1 2 1 2
M  V30 2 1 2 3
M  V30 3 1 2 4
M  V30 4 1 3 5
M  V30 5 1 5 6
M  V30 6 2 6 7
M  V30 7 1 6 8
M  V30 8 1 7 9
M  V30 9 2 8 10
M  V30 10 2 9 11
M  V30 11 1 10 11
M  V30 END BOND
M  V30 END CTAB
M  END
>  <Molecule Name>
Acetic acid, benzyl ester

>  <Activity Label>
0

>  <SMILES>
CC(OCc1ccccc1)=O

>  <Molecular Formula>
C9H10O2

>  <InChIKey>
QUKGYYKBILRGFE-UHFFFAOYSA-N

>  <Repellency>
Inactive

>  <Reference DOI>
10.3390/toxics11100837

>  <Target Organism>
Not applied

$$$$
Compound 262
Actelion Java MolfileCreator 2.0

  0  0  0  0  0  0              0 V3000
M  V30 BEGIN CTAB
M  V30 COUNTS 11 11 0 0 0
M  V30 BEGIN ATOM
M  V30 1 O 0.0 0.0 0.0 0
M  V30 2 C 0.0 1.5004 0.0 0
M  V30 3 O -1.2995 2.2447 0.0 0
M  V30 4 C 1.2995 2.2447 0.0 0
M  V30 5 C -2.5991 1.5004 0.0 0
M  V30 6 C -3.8987 2.2565 0.0 0
M  V30 7 C -2.5991 0.0 0.0 0
M  V30 8 C -5.1983 1.5122 0.0 0
M  V30 9 C -3.8987 -0.7443 0.0 0
M  V30 10 C -5.1983 0.0118 0.0 0
M  V30 11 C -6.4978 2.2683 0.0 0
M  V30 END ATOM
M  V30 BEGIN BOND
M  V30 1 2 1 2
M  V30 2 1 2 3
M  V30 3 1 2 4
M  V30 4 1 3 5
M  V30 5 2 5 6
M  V30 6 1 5 7
M  V30 7 1 6 8
M  V30 8 2 7 9
M  V30 9 2 8 10
M  V30 10 1 8 11
M  V30 11 1 9 10
M  V30 END BOND
M  V30 END CTAB
M  END
>  <Molecule Name>
Acetic acid, m-cresyl ester

>  <Activity Label>
0

>  <SMILES>
CC(Oc1cc(C)ccc1)=O

>  <Molecular Formula>
C9H10O2

>  <InChIKey>
OTGAHJPFNKQGAE-UHFFFAOYSA-N

>  <Repellency>
Inactive

>  <Reference DOI>
10.3390/toxics11100837

>  <Target Organism>
Not applied

$$$$
Compound 263
Actelion Java MolfileCreator 2.0

  0  0  0  0  0  0              0 V3000
M  V30 BEGIN CTAB
M  V30 COUNTS 11 11 0 0 0
M  V30 BEGIN ATOM
M  V30 1 O 0.0 0.0 0.0 0
M  V30 2 C 0.0 1.5007 0.0 0
M  V30 3 O -1.2998 2.2451 0.0 0
M  V30 4 C 1.2998 2.2451 0.0 0
M  V30 5 C -2.5996 1.5007 0.0 0
M  V30 6 C -3.8994 2.2569 0.0 0
M  V30 7 C -2.5996 0.0 0.0 0
M  V30 8 C -5.1992 1.5125 0.0 0
M  V30 9 C -3.8994 3.7576 0.0 0
M  V30 10 C -3.8994 -0.7444 0.0 0
M  V30 11 C -5.1992 0.0118 0.0 0
M  V30 END ATOM
M  V30 BEGIN BOND
M  V30 1 2 1 2
M  V30 2 1 2 3
M  V30 3 1 2 4
M  V30 4 1 3 5
M  V30 5 2 5 6
M  V30 6 1 5 7
M  V30 7 1 6 8
M  V30 8 1 6 9
M  V30 9 2 7 10
M  V30 10 2 8 11
M  V30 11 1 10 11
M  V30 END BOND
M  V30 END CTAB
M  END
>  <Molecule Name>
Acetic acid, o-cresyl ester

>  <Activity Label>
0

>  <SMILES>
CC(Oc1c(C)cccc1)=O

>  <Molecular Formula>
C9H10O2

>  <InChIKey>
AMZORBZSQRUXNC-UHFFFAOYSA-N

>  <Repellency>
Inactive

>  <Reference DOI>
10.3390/toxics11100837

>  <Target Organism>
Not applied

$$$$
Compound 264
Actelion Java MolfileCreator 2.0

  0  0  0  0  0  0              0 V3000
M  V30 BEGIN CTAB
M  V30 COUNTS 11 11 0 0 0
M  V30 BEGIN ATOM
M  V30 1 O 0.0 0.0 0.0 0
M  V30 2 C -1.3 -0.7445 0.0 0
M  V30 3 C 1.3 -0.7445 0.0 0
M  V30 4 C -2.6 0.0118 0.0 0
M  V30 5 C -1.3 -2.2455 0.0 0
M  V30 6 C 2.6 0.0 0.0 0
M  V30 7 O -2.6 1.5127 0.0 0
M  V30 8 C -3.9001 -0.7327 0.0 0
M  V30 9 C -2.6 -2.99 0.0 0
M  V30 10 C 3.9001 -0.7445 0.0 0
M  V30 11 C -3.9001 -2.2337 0.0 0
M  V30 END ATOM
M  V30 BEGIN BOND
M  V30 1 1 1 2
M  V30 2 1 1 3
M  V30 3 2 2 4
M  V30 4 1 2 5
M  V30 5 1 3 6
M  V30 6 1 4 7
M  V30 7 1 4 8
M  V30 8 2 5 9
M  V30 9 1 6 10
M  V30 10 2 8 11
M  V30 11 1 9 11
M  V30 END BOND
M  V30 END CTAB
M  END
>  <Molecule Name>
2-Propoxyphenol

>  <Activity Label>
0

>  <SMILES>
CCCOc(cccc1)c1O

>  <Molecular Formula>
C9H12O2

>  <InChIKey>
JFSVGKRARHIICJ-UHFFFAOYSA-N

>  <Repellency>
Inactive

>  <Reference DOI>
10.3390/toxics11100837

>  <Target Organism>
Not applied

$$$$
Compound 265
Actelion Java MolfileCreator 2.0

  0  0  0  0  0  0              0 V3000
M  V30 BEGIN CTAB
M  V30 COUNTS 11 11 0 0 0
M  V30 BEGIN ATOM
M  V30 1 O 0.0 0.0 0.0 0
M  V30 2 C -1.3 -0.7445 0.0 0
M  V30 3 C 1.3 -0.7445 0.0 0
M  V30 4 C -2.6 0.0118 0.0 0
M  V30 5 C -1.3 -2.2455 0.0 0
M  V30 6 C 2.6 0.0 0.0 0
M  V30 7 O -2.6 1.5127 0.0 0
M  V30 8 C -3.9001 -0.7327 0.0 0
M  V30 9 C -2.6 -2.99 0.0 0
M  V30 10 C 3.9001 -0.7445 0.0 0
M  V30 11 C -3.9001 -2.2337 0.0 0
M  V30 END ATOM
M  V30 BEGIN BOND
M  V30 1 1 1 2
M  V30 2 1 1 3
M  V30 3 1 2 4
M  V30 4 1 2 5
M  V30 5 1 3 6
M  V30 6 1 4 7
M  V30 7 1 4 8
M  V30 8 1 5 9
M  V30 9 1 6 10
M  V30 10 1 8 11
M  V30 11 1 9 11
M  V30 END BOND
M  V30 END CTAB
M  END
>  <Molecule Name>
2-n-Propoxycyclohexanol

>  <Activity Label>
0

>  <SMILES>
CCCOC(CCCC1)C1O

>  <Molecular Formula>
C9H18O2

>  <InChIKey>
HYONOAUBEBMUEL-UHFFFAOYSA-N

>  <Repellency>
Inactive

>  <Reference DOI>
10.3390/toxics11100837

>  <Target Organism>
Not applied

$$$$
Compound 266
Actelion Java MolfileCreator 2.0

  0  0  0  0  0  0              0 V3000
M  V30 BEGIN CTAB
M  V30 COUNTS 11 11 0 0 0
M  V30 BEGIN ATOM
M  V30 1 O 0.0 0.0 0.0 0
M  V30 2 C 0.0 -1.4993 0.0 0 CFG=2
M  V30 3 C 1.2986 -2.2549 0.0 0
M  V30 4 C -1.2986 -2.2549 0.0 0
M  V30 5 C 1.2986 -3.7542 0.0 0
M  V30 6 C 2.5972 -1.5111 0.0 0
M  V30 7 C -2.5972 -1.5111 0.0 0
M  V30 8 C 2.5972 -4.5098 0.0 0
M  V30 9 C 3.8959 -2.2667 0.0 0
M  V30 10 O -3.8959 -2.2667 0.0 0
M  V30 11 C 3.8959 -3.766 0.0 0
M  V30 END ATOM
M  V30 BEGIN BOND
M  V30 1 1 2 1 CFG=3
M  V30 2 1 2 3
M  V30 3 1 2 4
M  V30 4 2 3 5
M  V30 5 1 3 6
M  V30 6 1 4 7
M  V30 7 1 5 8
M  V30 8 2 6 9
M  V30 9 1 7 10
M  V30 10 2 8 11
M  V30 11 1 9 11
M  V30 END BOND
M  V30 BEGIN COLLECTION
M  V30 MDLV30/STERAC1 ATOMS=(1 2)
M  V30 END COLLECTION
M  V30 END CTAB
M  END
>  <Molecule Name>
1-Phenyl-1,3-propanediol

>  <Activity Label>
0

>  <SMILES>
OCCC(c1ccccc1)O

>  <Molecular Formula>
C9H12O2

>  <InChIKey>
RRVFYOSEKOTFOG-UHFFFAOYSA-N

>  <Repellency>
Inactive

>  <Reference DOI>
10.3390/toxics11100837

>  <Target Organism>
Not applied

$$$$
Compound 267
Actelion Java MolfileCreator 2.0

  0  0  0  0  0  0              0 V3000
M  V30 BEGIN CTAB
M  V30 COUNTS 11 11 0 0 0
M  V30 BEGIN ATOM
M  V30 1 O 0.0 0.0 0.0 0
M  V30 2 C 1.2995 -0.7561 0.0 0
M  V30 3 C -1.2995 -0.7443 0.0 0
M  V30 4 O 1.2995 -2.2565 0.0 0
M  V30 5 C 2.5991 -0.0118 0.0 0
M  V30 6 C 2.5991 -1.5122 0.0 0
M  V30 7 C -1.2995 -2.2447 0.0 0
M  V30 8 C 0.0 -3.0008 0.0 0
M  V30 9 C 3.8987 -0.7561 0.0 0
M  V30 10 C 5.1983 -0.0118 0.0 0
M  V30 11 C 3.8987 -2.2565 0.0 0
M  V30 END ATOM
M  V30 BEGIN BOND
M  V30 1 1 1 2
M  V30 2 1 1 3
M  V30 3 1 2 4
M  V30 4 1 2 5
M  V30 5 1 2 6
M  V30 6 1 3 7
M  V30 7 1 4 8
M  V30 8 1 5 9
M  V30 9 1 9 10
M  V30 10 1 9 11
M  V30 11 1 7 8
M  V30 END BOND
M  V30 END CTAB
M  END
>  <Molecule Name>
2-Methyl-2-iso-butyl-m-dioxane

>  <Activity Label>
0

>  <SMILES>
CC(C)CC1(C)OCCCO1

>  <Molecular Formula>
C9H18O2

>  <InChIKey>
LSRWILPECJPRQQ-UHFFFAOYSA-N

>  <Repellency>
Inactive

>  <Reference DOI>
10.3390/toxics11100837

>  <Target Organism>
Not applied

$$$$
Compound 268
Actelion Java MolfileCreator 2.0

  0  0  0  0  0  0              0 V3000
M  V30 BEGIN CTAB
M  V30 COUNTS 11 11 0 0 0
M  V30 BEGIN ATOM
M  V30 1 O 0.0 0.0 0.0 0
M  V30 2 C -1.2981 0.7553 0.0 0
M  V30 3 C 0.0 -1.4988 0.0 0
M  V30 4 O -2.5963 0.0118 0.0 0
M  V30 5 C -0.5428 2.0534 0.0 0
M  V30 6 C -2.0416 2.0534 0.0 0
M  V30 7 C -1.2981 -2.2541 0.0 0
M  V30 8 C 0.7435 -2.7969 0.0 0
M  V30 9 C 1.4988 -1.4988 0.0 0
M  V30 10 C -2.5963 -1.487 0.0 0 CFG=2
M  V30 11 C -3.8945 -2.2423 0.0 0
M  V30 END ATOM
M  V30 BEGIN BOND
M  V30 1 1 1 2
M  V30 2 1 1 3
M  V30 3 1 2 4
M  V30 4 1 2 5
M  V30 5 1 2 6
M  V30 6 1 3 7
M  V30 7 1 3 8
M  V30 8 1 3 9
M  V30 9 1 4 10
M  V30 10 1 10 11 CFG=3
M  V30 11 1 7 10
M  V30 END BOND
M  V30 BEGIN COLLECTION
M  V30 MDLV30/STERAC1 ATOMS=(1 10)
M  V30 END COLLECTION
M  V30 END CTAB
M  END
>  <Molecule Name>
2,2,4,4,6-Pentamethyl-m-dioxane

>  <Activity Label>
0

>  <SMILES>
CC1OC(C)(C)OC(C)(C)C1

>  <Molecular Formula>
C9H18O2

>  <InChIKey>
SQVMCGWVSBBJRW-UHFFFAOYSA-N

>  <Repellency>
Inactive

>  <Reference DOI>
10.3390/toxics11100837

>  <Target Organism>
Not applied

$$$$
Compound 269
Actelion Java MolfileCreator 2.0

  0  0  0  0  0  0              0 V3000
M  V30 BEGIN CTAB
M  V30 COUNTS 11 11 0 0 0
M  V30 BEGIN ATOM
M  V30 1 Cl 0.0 0.0 0.0 0
M  V30 2 C -1.3 0.7445 0.0 0
M  V30 3 C -2.6 0.0 0.0 0
M  V30 4 O -2.6 -1.5009 0.0 0
M  V30 5 O -3.9001 0.7445 0.0 0
M  V30 6 C -5.2001 0.0 0.0 0
M  V30 7 C -6.5002 0.7563 0.0 0
M  V30 8 C -5.2001 -1.5009 0.0 0
M  V30 9 C -7.8002 0.0118 0.0 0
M  V30 10 C -6.5002 -2.2455 0.0 0
M  V30 11 C -7.8002 -1.4891 0.0 0
M  V30 END ATOM
M  V30 BEGIN BOND
M  V30 1 1 1 2
M  V30 2 1 2 3
M  V30 3 2 3 4
M  V30 4 1 3 5
M  V30 5 1 5 6
M  V30 6 1 6 7
M  V30 7 1 6 8
M  V30 8 1 7 9
M  V30 9 1 8 10
M  V30 10 1 9 11
M  V30 11 1 10 11
M  V30 END BOND
M  V30 END CTAB
M  END
>  <Molecule Name>
Chloroacetic acid, cyclohexyl ester

>  <Activity Label>
0

>  <SMILES>
O=C(CCl)OC1CCCCC1

>  <Molecular Formula>
C8H13O2Cl

>  <InChIKey>
IBFHBLOKQVCABG-UHFFFAOYSA-N

>  <Repellency>
Inactive

>  <Reference DOI>
10.3390/toxics11100837

>  <Target Organism>
Not applied

$$$$
Compound 270
Actelion Java MolfileCreator 2.0

  0  0  0  0  0  0              0 V3000
M  V30 BEGIN CTAB
M  V30 COUNTS 11 11 0 0 0
M  V30 BEGIN ATOM
M  V30 1 O 0.0 0.0 0.0 0
M  V30 2 C 0.0 1.5023 0.0 0
M  V30 3 C 1.3012 2.2475 0.0 0
M  V30 4 C 1.3012 3.7498 0.0 0
M  V30 5 C 2.6024 1.5023 0.0 0
M  V30 6 C 2.6024 4.4951 0.0 0
M  V30 7 C 3.9036 2.2475 0.0 0
M  V30 8 C 3.9036 3.738 0.0 0
M  V30 9 C 5.2048 4.4832 0.0 0
M  V30 10 C 6.506 3.738 0.0 0
M  V30 11 C 5.2048 5.9856 0.0 0
M  V30 END ATOM
M  V30 BEGIN BOND
M  V30 1 2 1 2
M  V30 2 1 2 3
M  V30 3 2 3 4
M  V30 4 1 3 5
M  V30 5 1 4 6
M  V30 6 2 5 7
M  V30 7 2 6 8
M  V30 8 1 8 9
M  V30 9 1 9 10
M  V30 10 1 9 11
M  V30 11 1 7 8
M  V30 END BOND
M  V30 END CTAB
M  END
>  <Molecule Name>
p-iso -Propylbenzaldehyde

>  <Activity Label>
0

>  <SMILES>
CC(C)c1ccc(C=O)cc1

>  <Molecular Formula>
C10H12O

>  <InChIKey>
WTWBUQJHJGUZCY-UHFFFAOYSA-N

>  <Repellency>
Inactive

>  <Reference DOI>
10.3390/toxics11100837

>  <Target Organism>
Not applied

$$$$
Compound 271
Actelion Java MolfileCreator 2.0

  0  0  0  0  0  0              0 V3000
M  V30 BEGIN CTAB
M  V30 COUNTS 11 11 0 0 0
M  V30 BEGIN ATOM
M  V30 1 O 0.0 0.0 0.0 0
M  V30 2 C -1.1996 0.7372 0.0 0
M  V30 3 C -2.5617 -0.0624 0.0 0 CFG=2
M  V30 4 C -1.2121 2.3118 0.0 0
M  V30 5 C -2.5492 -1.512 0.0 0
M  V30 6 C -3.9238 0.7122 0.0 0
M  V30 7 C -2.5617 3.074 0.0 0 CFG=1
M  V30 8 C -3.7238 -2.3367 0.0 0
M  V30 9 C -1.2996 -2.2493 0.0 0
M  V30 10 C -3.9238 2.2993 0.0 0
M  V30 11 C -3.6613 3.8238 0.0 0
M  V30 END ATOM
M  V30 BEGIN BOND
M  V30 1 2 1 2
M  V30 2 1 2 3
M  V30 3 1 2 4
M  V30 4 1 3 5 CFG=3
M  V30 5 1 3 6
M  V30 6 1 4 7
M  V30 7 1 5 8
M  V30 8 1 5 9
M  V30 9 1 6 10
M  V30 10 1 7 11 CFG=1
M  V30 11 1 7 10
M  V30 END BOND
M  V30 BEGIN COLLECTION
M  V30 MDLV30/STEABS ATOMS=(2 3 7)
M  V30 END COLLECTION
M  V30 END CTAB
M  END
>  <Molecule Name>
Menthone

>  <Activity Label>
0

>  <SMILES>
CC(C)[C@H](CC[C@@H](C)C1)C1=O

>  <Molecular Formula>
C10H18O

>  <InChIKey>
NFLGAXVYCFJBMK-BDAKNGLRSA-N

>  <Repellency>
Inactive

>  <Reference DOI>
10.3390/toxics11100837

>  <Target Organism>
Not applied

$$$$
Compound 272
Actelion Java MolfileCreator 2.0

  0  0  0  0  0  0              0 V3000
M  V30 BEGIN CTAB
M  V30 COUNTS 11 11 0 0 0
M  V30 BEGIN ATOM
M  V30 1 O 0.0 0.0 0.0 0
M  V30 2 C -1.2921 0.7586 0.0 0 CFG=1
M  V30 3 C -2.5961 0.0118 0.0 0 CFG=2
M  V30 4 C -1.2921 2.2523 0.0 0
M  V30 5 C -2.5961 -1.4936 0.0 0
M  V30 6 C -3.8882 0.7586 0.0 0
M  V30 7 C -2.5842 3.011 0.0 0 CFG=1
M  V30 8 C -1.2921 -2.2404 0.0 0
M  V30 9 C -3.9 -2.2404 0.0 0
M  V30 10 C -3.8763 2.2641 0.0 0
M  V30 11 C -2.5842 4.5165 0.0 0
M  V30 END ATOM
M  V30 BEGIN BOND
M  V30 1 1 2 1 CFG=1
M  V30 2 1 2 3
M  V30 3 1 2 4
M  V30 4 1 3 5 CFG=3
M  V30 5 1 3 6
M  V30 6 1 4 7
M  V30 7 2 5 8
M  V30 8 1 5 9
M  V30 9 1 6 10
M  V30 10 1 7 11 CFG=1
M  V30 11 1 7 10
M  V30 END BOND
M  V30 BEGIN COLLECTION
M  V30 MDLV30/STEABS ATOMS=(3 2 3 7)
M  V30 END COLLECTION
M  V30 END CTAB
M  END
>  <Molecule Name>
Isopulegol

>  <Activity Label>
0

>  <SMILES>
C[C@H](CC[C@H]1C(C)=C)C[C@H]1O

>  <Molecular Formula>
C10H18O

>  <InChIKey>
ZYTMANIQRDEHIO-KXUCPTDWSA-N

>  <Repellency>
Inactive

>  <Reference DOI>
10.3390/toxics11100837

>  <Target Organism>
Not applied

$$$$
Compound 273
Actelion Java MolfileCreator 2.0

  0  0  0  0  0  0              0 V3000
M  V30 BEGIN CTAB
M  V30 COUNTS 11 11 0 0 0
M  V30 BEGIN ATOM
M  V30 1 O 0.0 0.0 0.0 0
M  V30 2 C 0.0 1.5025 0.0 0
M  V30 3 C 1.3014 2.2479 0.0 0
M  V30 4 C -1.3014 2.2479 0.0 0
M  V30 5 C 1.3014 3.7505 0.0 0
M  V30 6 C 2.6028 1.5025 0.0 0
M  V30 7 C 2.6028 4.4958 0.0 0
M  V30 8 C 3.9043 2.2479 0.0 0
M  V30 9 C 3.9043 3.7386 0.0 0
M  V30 10 C 5.2057 4.484 0.0 0
M  V30 11 C 6.5072 3.7386 0.0 0
M  V30 END ATOM
M  V30 BEGIN BOND
M  V30 1 2 1 2
M  V30 2 1 2 3
M  V30 3 1 2 4
M  V30 4 2 3 5
M  V30 5 1 3 6
M  V30 6 1 5 7
M  V30 7 2 6 8
M  V30 8 2 7 9
M  V30 9 1 9 10
M  V30 10 1 10 11
M  V30 11 1 8 9
M  V30 END BOND
M  V30 END CTAB
M  END
>  <Molecule Name>
p-Ethylacetophenone

>  <Activity Label>
0

>  <SMILES>
CCc(cc1)ccc1C(C)=O

>  <Molecular Formula>
C10H12O

>  <InChIKey>
NODGRWCMFMEGJH-UHFFFAOYSA-N

>  <Repellency>
Inactive

>  <Reference DOI>
10.3390/toxics11100837

>  <Target Organism>
Not applied

$$$$
Compound 274
Actelion Java MolfileCreator 2.0

  0  0  0  0  0  0              0 V3000
M  V30 BEGIN CTAB
M  V30 COUNTS 11 11 0 0 0
M  V30 BEGIN ATOM
M  V30 1 O 0.0 0.0 0.0 0
M  V30 2 C -1.3009 0.7451 0.0 0
M  V30 3 C -1.3009 2.2471 0.0 0
M  V30 4 C -2.6019 0.0 0.0 0
M  V30 5 C 0.0 2.9922 0.0 0
M  V30 6 C -2.6019 2.9922 0.0 0
M  V30 7 C 0.0 4.4942 0.0 0
M  V30 8 C 1.3009 2.2471 0.0 0
M  V30 9 C -2.6019 4.4942 0.0 0
M  V30 10 C -1.3009 5.2393 0.0 0
M  V30 11 C -3.9029 5.2393 0.0 0
M  V30 END ATOM
M  V30 BEGIN BOND
M  V30 1 2 1 2
M  V30 2 1 2 3
M  V30 3 1 2 4
M  V30 4 2 3 5
M  V30 5 1 3 6
M  V30 6 1 5 7
M  V30 7 1 5 8
M  V30 8 2 6 9
M  V30 9 2 7 10
M  V30 10 1 9 11
M  V30 11 1 9 10
M  V30 END BOND
M  V30 END CTAB
M  END
>  <Molecule Name>
2,5-Dimethylacetophenone

>  <Activity Label>
0

>  <SMILES>
CC(c1c(C)ccc(C)c1)=O

>  <Molecular Formula>
C10H12O

>  <InChIKey>
AWKBVLVKQQRRFQ-UHFFFAOYSA-N

>  <Repellency>
Inactive

>  <Reference DOI>
10.3390/toxics11100837

>  <Target Organism>
Not applied

$$$$
Compound 275
Actelion Java MolfileCreator 2.0

  0  0  0  0  0  0              0 V3000
M  V30 BEGIN CTAB
M  V30 COUNTS 11 11 0 0 0
M  V30 BEGIN ATOM
M  V30 1 O 0.0 0.0 0.0 0
M  V30 2 C 1.2991 0.744 0.0 0 CFG=2
M  V30 3 C 2.5982 -0.0118 0.0 0
M  V30 4 C 1.2991 2.2439 0.0 0
M  V30 5 C 3.8973 0.7322 0.0 0
M  V30 6 C 5.1964 -0.0236 0.0 0
M  V30 7 C 5.1964 -1.5235 0.0 0
M  V30 8 C 6.4955 0.7204 0.0 0
M  V30 9 C 6.4955 -2.2793 0.0 0
M  V30 10 C 7.7946 -0.0354 0.0 0
M  V30 11 C 7.7946 -1.5353 0.0 0
M  V30 END ATOM
M  V30 BEGIN BOND
M  V30 1 1 2 1 CFG=1
M  V30 2 1 2 3
M  V30 3 1 2 4
M  V30 4 1 3 5
M  V30 5 1 5 6
M  V30 6 2 6 7
M  V30 7 1 6 8
M  V30 8 1 7 9
M  V30 9 2 8 10
M  V30 10 2 9 11
M  V30 11 1 10 11
M  V30 END BOND
M  V30 BEGIN COLLECTION
M  V30 MDLV30/STERAC1 ATOMS=(1 2)
M  V30 END COLLECTION
M  V30 END CTAB
M  END
>  <Molecule Name>
4-phenyl-2-butanol

>  <Activity Label>
0

>  <SMILES>
CC(CCc1ccccc1)O

>  <Molecular Formula>
C10H14O

>  <InChIKey>
GDWRKZLROIFUML-UHFFFAOYSA-N

>  <Repellency>
Inactive

>  <Reference DOI>
10.3390/toxics11100837

>  <Target Organism>
Not applied

$$$$
Compound 276
Actelion Java MolfileCreator 2.0

  0  0  0  0  0  0              0 V3000
M  V30 BEGIN CTAB
M  V30 COUNTS 11 11 0 0 0
M  V30 BEGIN ATOM
M  V30 1 O 0.0 0.0 0.0 0
M  V30 2 C 1.3011 -0.7452 0.0 0
M  V30 3 C -1.3011 -0.7452 0.0 0
M  V30 4 C 2.6023 0.0 0.0 0
M  V30 5 C -2.6023 0.0 0.0 0
M  V30 6 C 3.9035 -0.7452 0.0 0
M  V30 7 C 2.6023 1.5022 0.0 0
M  V30 8 C -3.9035 -0.7452 0.0 0
M  V30 9 C 5.2047 0.0 0.0 0
M  V30 10 C 3.9035 2.2475 0.0 0
M  V30 11 C 5.2047 1.5022 0.0 0
M  V30 END ATOM
M  V30 BEGIN BOND
M  V30 1 1 1 2
M  V30 2 1 1 3
M  V30 3 1 2 4
M  V30 4 1 3 5
M  V30 5 2 4 6
M  V30 6 1 4 7
M  V30 7 2 5 8
M  V30 8 1 6 9
M  V30 9 2 7 10
M  V30 10 2 9 11
M  V30 11 1 10 11
M  V30 END BOND
M  V30 END CTAB
M  END
>  <Molecule Name>
Allyl benzyl ether

>  <Activity Label>
0

>  <SMILES>
C=CCOCc1ccccc1

>  <Molecular Formula>
C10H12O

>  <InChIKey>
HUGHWHMUUQNACD-UHFFFAOYSA-N

>  <Repellency>
Inactive

>  <Reference DOI>
10.3390/toxics11100837

>  <Target Organism>
Not applied

$$$$
Compound 277
Actelion Java MolfileCreator 2.0

  0  0  0  0  0  0              0 V3000
M  V30 BEGIN CTAB
M  V30 COUNTS 11 11 0 0 0
M  V30 BEGIN ATOM
M  V30 1 O 0.0 0.0 0.0 0
M  V30 2 C 1.3011 -0.7452 0.0 0
M  V30 3 C -1.3011 -0.7452 0.0 0
M  V30 4 C 2.6023 0.0 0.0 0
M  V30 5 C -2.6023 0.0 0.0 0
M  V30 6 C 3.9035 -0.7452 0.0 0
M  V30 7 C 2.6023 1.5022 0.0 0
M  V30 8 C -3.9035 -0.7452 0.0 0
M  V30 9 C 5.2047 0.0 0.0 0
M  V30 10 C 3.9035 2.2475 0.0 0
M  V30 11 C 5.2047 1.5022 0.0 0
M  V30 END ATOM
M  V30 BEGIN BOND
M  V30 1 1 1 2
M  V30 2 1 1 3
M  V30 3 1 2 4
M  V30 4 1 3 5
M  V30 5 2 4 6
M  V30 6 1 4 7
M  V30 7 1 5 8
M  V30 8 1 6 9
M  V30 9 2 7 10
M  V30 10 2 9 11
M  V30 11 1 10 11
M  V30 END BOND
M  V30 END CTAB
M  END
>  <Molecule Name>
n-Propyl benzyl ether

>  <Activity Label>
0

>  <SMILES>
CCCOCc1ccccc1

>  <Molecular Formula>
C10H14O

>  <InChIKey>
RPTKMZRQBREOMV-UHFFFAOYSA-N

>  <Repellency>
Inactive

>  <Reference DOI>
10.3390/toxics11100837

>  <Target Organism>
Not applied

$$$$
Compound 278
Actelion Java MolfileCreator 2.0

  0  0  0  0  0  0              0 V3000
M  V30 BEGIN CTAB
M  V30 COUNTS 11 11 0 0 0
M  V30 BEGIN ATOM
M  V30 1 O 0.0 0.0 0.0 0
M  V30 2 C -1.2986 -0.7555 0.0 0 CFG=2
M  V30 3 C 0.0 1.4993 0.0 0
M  V30 4 C -1.2986 -2.2549 0.0 0
M  V30 5 C -2.5972 -0.0118 0.0 0
M  V30 6 C -2.5972 -3.0105 0.0 0
M  V30 7 C -3.8959 -0.7673 0.0 0
M  V30 8 C -3.8959 -2.2667 0.0 0
M  V30 9 C -5.1945 -3.0223 0.0 0
M  V30 10 C -6.4932 -2.2785 0.0 0
M  V30 11 C -7.7918 -3.0341 0.0 0
M  V30 END ATOM
M  V30 BEGIN BOND
M  V30 1 1 2 1 CFG=3
M  V30 2 1 1 3
M  V30 3 1 2 4
M  V30 4 1 2 5
M  V30 5 2 4 6
M  V30 6 1 5 7
M  V30 7 1 6 8
M  V30 8 1 8 9
M  V30 9 2 9 10 CFG=2
M  V30 10 1 10 11
M  V30 11 2 7 8
M  V30 END BOND
M  V30 BEGIN COLLECTION
M  V30 MDLV30/STERAC1 ATOMS=(1 2)
M  V30 END COLLECTION
M  V30 END CTAB
M  END
>  <Molecule Name>
Dihydroanethole

>  <Activity Label>
0

>  <SMILES>
CC=CC(C=C1)=CCC1OC

>  <Molecular Formula>
C10H14O

>  <InChIKey>
CEACUXOVVIUXJZ-UHFFFAOYSA-N

>  <Repellency>
Inactive

>  <Reference DOI>
10.3390/toxics11100837

>  <Target Organism>
Not applied

$$$$
Compound 279
Actelion Java MolfileCreator 2.0

  0  0  0  0  0  0              0 V3000
M  V30 BEGIN CTAB
M  V30 COUNTS 11 11 0 0 0
M  V30 BEGIN ATOM
M  V30 1 O 0.0 0.0 0.0 0
M  V30 2 C 1.3011 -0.7452 0.0 0
M  V30 3 C -1.3011 -0.7452 0.0 0
M  V30 4 C 2.6023 0.0 0.0 0
M  V30 5 C 3.9035 -0.7452 0.0 0
M  V30 6 C 5.2047 0.0 0.0 0
M  V30 7 C 6.5059 -0.7452 0.0 0
M  V30 8 C 5.2047 1.5022 0.0 0
M  V30 9 C 7.8071 0.0 0.0 0
M  V30 10 C 6.5059 2.2475 0.0 0
M  V30 11 C 7.8071 1.5022 0.0 0
M  V30 END ATOM
M  V30 BEGIN BOND
M  V30 1 1 1 2
M  V30 2 1 1 3
M  V30 3 1 2 4
M  V30 4 2 4 5 CFG=2
M  V30 5 1 5 6
M  V30 6 2 6 7
M  V30 7 1 6 8
M  V30 8 1 7 9
M  V30 9 2 8 10
M  V30 10 2 9 11
M  V30 11 1 10 11
M  V30 END BOND
M  V30 END CTAB
M  END
>  <Molecule Name>
Methyl cinnamyl ether

>  <Activity Label>
0

>  <SMILES>
COCC=Cc1ccccc1

>  <Molecular Formula>
C10H12O

>  <InChIKey>
XOURNDFHPYLQDJ-UHFFFAOYSA-N

>  <Repellency>
Inactive

>  <Reference DOI>
10.3390/toxics11100837

>  <Target Organism>
Not applied

$$$$
Compound 280
Actelion Java MolfileCreator 2.0

  0  0  0  0  0  0              0 V3000
M  V30 BEGIN CTAB
M  V30 COUNTS 11 11 0 0 0
M  V30 BEGIN ATOM
M  V30 1 O 0.0 0.0 0.0 0
M  V30 2 C 0.0 -1.5007 0.0 0
M  V30 3 C 1.2998 -2.2569 0.0 0 CFG=2
M  V30 4 C -1.2998 -2.2451 0.0 0
M  V30 5 C 1.2998 -3.7576 0.0 0
M  V30 6 C 2.5996 -1.5125 0.0 0
M  V30 7 C -1.2998 -3.7458 0.0 0
M  V30 8 C 0.0 -4.5021 0.0 0
M  V30 9 C 3.8994 -2.2569 0.0 0
M  V30 10 C 3.8994 -3.7576 0.0 0
M  V30 11 C 5.1992 -1.5125 0.0 0
M  V30 END ATOM
M  V30 BEGIN BOND
M  V30 1 2 1 2
M  V30 2 1 2 3
M  V30 3 1 2 4
M  V30 4 1 3 5
M  V30 5 1 3 6 CFG=1
M  V30 6 1 4 7
M  V30 7 1 5 8
M  V30 8 1 6 9
M  V30 9 2 9 10
M  V30 10 1 9 11
M  V30 11 1 7 8
M  V30 END BOND
M  V30 BEGIN COLLECTION
M  V30 MDLV30/STERAC1 ATOMS=(1 3)
M  V30 END COLLECTION
M  V30 END CTAB
M  END
>  <Molecule Name>
2-Methallylcyclohexanone

>  <Activity Label>
0

>  <SMILES>
CC(CC(CCCC1)C1=O)=C

>  <Molecular Formula>
C10H16O

>  <InChIKey>
JQWQZUBISFFUJF-UHFFFAOYSA-N

>  <Repellency>
Inactive

>  <Reference DOI>
10.3390/toxics11100837

>  <Target Organism>
Not applied

$$$$
Compound 281
Actelion Java MolfileCreator 2.0

  0  0  0  0  0  0              0 V3000
M  V30 BEGIN CTAB
M  V30 COUNTS 11 11 0 0 0
M  V30 BEGIN ATOM
M  V30 1 O 0.0 0.0 0.0 0
M  V30 2 C 0.0 -1.5007 0.0 0
M  V30 3 C 1.2998 -2.2569 0.0 0
M  V30 4 C -1.2998 -2.2451 0.0 0
M  V30 5 C 1.2998 -3.7576 0.0 0
M  V30 6 C 2.5996 -1.5125 0.0 0
M  V30 7 C -1.2998 -3.7458 0.0 0
M  V30 8 C 0.0 -4.5021 0.0 0
M  V30 9 C 3.8994 -2.2569 0.0 0
M  V30 10 C 3.8994 -3.7576 0.0 0
M  V30 11 C 5.1992 -1.5125 0.0 0
M  V30 END ATOM
M  V30 BEGIN BOND
M  V30 1 1 1 2
M  V30 2 1 2 3
M  V30 3 1 2 4
M  V30 4 1 3 5
M  V30 5 1 3 6
M  V30 6 1 4 7
M  V30 7 1 5 8
M  V30 8 1 6 9
M  V30 9 2 9 10
M  V30 10 1 9 11
M  V30 11 1 7 8
M  V30 END BOND
M  V30 END CTAB
M  END
>  <Molecule Name>
2-Methallylcyclohexanol

>  <Activity Label>
0

>  <SMILES>
CC(CC(CCCC1)C1O)=C

>  <Molecular Formula>
C10H18O

>  <InChIKey>
GRXZGJVJOZWDAN-UHFFFAOYSA-N

>  <Repellency>
Inactive

>  <Reference DOI>
10.3390/toxics11100837

>  <Target Organism>
Not applied

$$$$
Compound 282
Actelion Java MolfileCreator 2.0

  0  0  0  0  0  0              0 V3000
M  V30 BEGIN CTAB
M  V30 COUNTS 11 11 0 0 0
M  V30 BEGIN ATOM
M  V30 1 O 0.0 0.0 0.0 0
M  V30 2 C -1.2998 -0.7444 0.0 0
M  V30 3 C -1.2998 -2.2451 0.0 0
M  V30 4 C -2.5996 0.0 0.0 0
M  V30 5 C -2.5996 -2.9895 0.0 0
M  V30 6 C 0.0 -2.9895 0.0 0
M  V30 7 C -2.5996 1.5007 0.0 0
M  V30 8 C -3.8994 -0.7444 0.0 0
M  V30 9 C -2.5996 -4.4902 0.0 0
M  V30 10 C 0.0 -4.4902 0.0 0
M  V30 11 C -1.2998 -5.2465 0.0 0
M  V30 END ATOM
M  V30 BEGIN BOND
M  V30 1 2 1 2
M  V30 2 1 2 3
M  V30 3 1 2 4
M  V30 4 2 3 5
M  V30 5 1 3 6
M  V30 6 1 4 7
M  V30 7 1 4 8
M  V30 8 1 5 9
M  V30 9 2 6 10
M  V30 10 2 9 11
M  V30 11 1 10 11
M  V30 END BOND
M  V30 END CTAB
M  END
>  <Molecule Name>
iso-Butyrophenone

>  <Activity Label>
0

>  <SMILES>
CC(C)C(c1ccccc1)=O

>  <Molecular Formula>
C10H12O

>  <InChIKey>
BSMGLVDZZMBWQB-UHFFFAOYSA-N

>  <Repellency>
Inactive

>  <Reference DOI>
10.3390/toxics11100837

>  <Target Organism>
Not applied

$$$$
Compound 283
Actelion Java MolfileCreator 2.0

  0  0  0  0  0  0              0 V3000
M  V30 BEGIN CTAB
M  V30 COUNTS 11 11 0 0 0
M  V30 BEGIN ATOM
M  V30 1 O 0.0 0.0 0.0 0
M  V30 2 C -1.2997 0.7444 0.0 0
M  V30 3 C -2.5995 1.4888 0.0 0
M  V30 4 C -0.5435 2.0442 0.0 0
M  V30 5 C -2.0442 -0.5553 0.0 0
M  V30 6 C -3.8993 0.7444 0.0 0
M  V30 7 C -5.1991 1.5006 0.0 0
M  V30 8 C -3.8993 -0.7562 0.0 0
M  V30 9 C -6.4989 0.7562 0.0 0
M  V30 10 C -5.1991 -1.5006 0.0 0
M  V30 11 C -6.4989 -0.7444 0.0 0
M  V30 END ATOM
M  V30 BEGIN BOND
M  V30 1 1 1 2
M  V30 2 1 2 3
M  V30 3 1 2 4
M  V30 4 1 2 5
M  V30 5 1 3 6
M  V30 6 2 6 7
M  V30 7 1 6 8
M  V30 8 1 7 9
M  V30 9 2 8 10
M  V30 10 2 9 11
M  V30 11 1 10 11
M  V30 END BOND
M  V30 END CTAB
M  END
>  <Molecule Name>
Dimethyl benzyl carbinol

>  <Activity Label>
0

>  <SMILES>
CC(C)(Cc1ccccc1)O

>  <Molecular Formula>
C10H14O

>  <InChIKey>
RIWRBSMFKVOJMN-UHFFFAOYSA-N

>  <Repellency>
Inactive

>  <Reference DOI>
10.3390/toxics11100837

>  <Target Organism>
Not applied

$$$$
Compound 284
Actelion Java MolfileCreator 2.0

  0  0  0  0  0  0              0 V3000
M  V30 BEGIN CTAB
M  V30 COUNTS 11 11 0 0 0
M  V30 BEGIN ATOM
M  V30 1 O 0.0 0.0 0.0 0
M  V30 2 C 1.3016 0.7454 0.0 0
M  V30 3 C 2.6033 1.4909 0.0 0 CFG=2
M  V30 4 C 2.0471 -0.5561 0.0 0
M  V30 5 C 0.5561 2.0471 0.0 0
M  V30 6 C 2.6033 2.9938 0.0 0
M  V30 7 C 3.9049 0.7454 0.0 0
M  V30 8 C 3.9049 3.7393 0.0 0
M  V30 9 C 5.2066 1.4909 0.0 0
M  V30 10 C 5.2066 2.9819 0.0 0
M  V30 11 C 6.5083 3.7274 0.0 0
M  V30 END ATOM
M  V30 BEGIN BOND
M  V30 1 1 1 2
M  V30 2 1 3 2 CFG=3
M  V30 3 1 2 4
M  V30 4 1 2 5
M  V30 5 1 3 6
M  V30 6 1 3 7
M  V30 7 1 6 8
M  V30 8 1 7 9
M  V30 9 2 8 10
M  V30 10 1 10 11
M  V30 11 1 9 10
M  V30 END BOND
M  V30 BEGIN COLLECTION
M  V30 MDLV30/STERAC1 ATOMS=(1 3)
M  V30 END COLLECTION
M  V30 END CTAB
M  END
>  <Molecule Name>
alpha-Terpineol

>  <Activity Label>
0

>  <SMILES>
CC(C)(C1CC=C(C)CC1)O

>  <Molecular Formula>
C10H18O

>  <InChIKey>
WUOACPNHFRMFPN-UHFFFAOYSA-N

>  <Repellency>
Inactive

>  <Reference DOI>
10.3390/toxics11100837

>  <Target Organism>
Not applied

$$$$
Compound 285
Actelion Java MolfileCreator 2.0

  0  0  0  0  0  0              0 V3000
M  V30 BEGIN CTAB
M  V30 COUNTS 11 11 0 0 0
M  V30 BEGIN ATOM
M  V30 1 Cl 0.0 0.0 0.0 0
M  V30 2 C 1.3011 0.7452 0.0 0
M  V30 3 C 2.6023 0.0 0.0 0
M  V30 4 O 3.9035 0.7452 0.0 0
M  V30 5 C 5.2047 0.0 0.0 0
M  V30 6 C 6.5059 0.7452 0.0 0
M  V30 7 C 7.8071 0.0 0.0 0
M  V30 8 C 6.5059 2.2475 0.0 0
M  V30 9 C 9.1083 0.7452 0.0 0
M  V30 10 C 7.8071 2.9927 0.0 0
M  V30 11 C 9.1083 2.2475 0.0 0
M  V30 END ATOM
M  V30 BEGIN BOND
M  V30 1 1 1 2
M  V30 2 1 2 3
M  V30 3 1 3 4
M  V30 4 1 4 5
M  V30 5 1 5 6
M  V30 6 2 6 7
M  V30 7 1 6 8
M  V30 8 1 7 9
M  V30 9 2 8 10
M  V30 10 2 9 11
M  V30 11 1 10 11
M  V30 END BOND
M  V30 END CTAB
M  END
>  <Molecule Name>
beta-Chloroethyl benzyl ether

>  <Activity Label>
0

>  <SMILES>
ClCCOCc1ccccc1

>  <Molecular Formula>
C9H11OCl

>  <InChIKey>
UPIMXDQREQJWMR-UHFFFAOYSA-N

>  <Repellency>
Inactive

>  <Reference DOI>
10.3390/toxics11100837

>  <Target Organism>
Not applied

$$$$
Compound 286
Actelion Java MolfileCreator 2.0

  0  0  0  0  0  0              0 V3000
M  V30 BEGIN CTAB
M  V30 COUNTS 11 11 0 0 0
M  V30 BEGIN ATOM
M  V30 1 Br 0.0 0.0 0.0 0
M  V30 2 C 1.3016 0.7454 0.0 0
M  V30 3 C 1.3016 2.2483 0.0 0
M  V30 4 C 2.6033 0.0 0.0 0
M  V30 5 C 2.6033 2.9938 0.0 0
M  V30 6 C 3.9049 0.7454 0.0 0
M  V30 7 C 3.9049 2.2364 0.0 0
M  V30 8 O 5.2066 2.9819 0.0 0
M  V30 9 C 6.5083 2.2364 0.0 0
M  V30 10 C 7.8099 2.9819 0.0 0
M  V30 11 C 9.1116 2.2364 0.0 0
M  V30 END ATOM
M  V30 BEGIN BOND
M  V30 1 1 1 2
M  V30 2 2 2 3
M  V30 3 1 2 4
M  V30 4 1 3 5
M  V30 5 2 4 6
M  V30 6 2 5 7
M  V30 7 1 7 8
M  V30 8 1 8 9
M  V30 9 1 9 10
M  V30 10 2 10 11
M  V30 11 1 6 7
M  V30 END BOND
M  V30 END CTAB
M  END
>  <Molecule Name>
p-Allyloxyphenylbromide

>  <Activity Label>
0

>  <SMILES>
C=CCOc(cc1)ccc1Br

>  <Molecular Formula>
C9H9OBr

>  <InChIKey>
ZXCVTYLZFUQVIE-UHFFFAOYSA-N

>  <Repellency>
Inactive

>  <Reference DOI>
10.3390/toxics11100837

>  <Target Organism>
Not applied

$$$$
Compound 287
Actelion Java MolfileCreator 2.0

  0  0  0  0  0  0              0 V3000
M  V30 BEGIN CTAB
M  V30 COUNTS 11 11 0 0 0
M  V30 BEGIN ATOM
M  V30 1 O 0.0 0.0 0.0 0
M  V30 2 C -1.2871 0.7557 0.0 0
M  V30 3 O -2.5861 0.0 0.0 0
M  V30 4 C -1.2871 2.2554 0.0 0
M  V30 5 C -3.8851 0.7439 0.0 0
M  V30 6 C 0.1653 1.8657 0.0 0
M  V30 7 C -2.3499 3.3182 0.0 0
M  V30 8 C -2.7396 1.8657 0.0 0
M  V30 9 C -5.184 -0.0118 0.0 0
M  V30 10 O 1.2281 2.9285 0.0 0
M  V30 11 C 0.5786 0.4369 0.0 0
M  V30 END ATOM
M  V30 BEGIN BOND
M  V30 1 2 1 2
M  V30 2 1 2 3
M  V30 3 1 2 4
M  V30 4 1 3 5
M  V30 5 1 4 6
M  V30 6 1 4 7
M  V30 7 1 4 8
M  V30 8 1 5 9
M  V30 9 2 6 10
M  V30 10 1 6 11
M  V30 11 1 7 8
M  V30 END BOND
M  V30 END CTAB
M  END
>  <Molecule Name>
1-Acetylcyclopropane-1-carboxylic acid, ethyl ester

>  <Activity Label>
0

>  <SMILES>
CCOC(C1(CC1)C(C)=O)=O

>  <Molecular Formula>
C8H12O3

>  <InChIKey>
DISZFIFAESWGBI-UHFFFAOYSA-N

>  <Repellency>
Inactive

>  <Reference DOI>
10.3390/toxics11100837

>  <Target Organism>
Not applied

$$$$
Compound 288
Actelion Java MolfileCreator 2.0

  0  0  0  0  0  0              0 V3000
M  V30 BEGIN CTAB
M  V30 COUNTS 11 11 0 0 0
M  V30 BEGIN ATOM
M  V30 1 O 0.0 0.0 0.0 0
M  V30 2 C -1.2997 0.7444 0.0 0
M  V30 3 C -2.5995 0.0 0.0 0
M  V30 4 C -3.8993 0.7562 0.0 0
M  V30 5 C -2.5995 -1.5006 0.0 0
M  V30 6 C -5.1991 0.0118 0.0 0
M  V30 7 C -3.8993 -2.2451 0.0 0
M  V30 8 O -6.4989 0.768 0.0 0
M  V30 9 C -5.1991 -1.4888 0.0 0
M  V30 10 C -7.7987 0.0236 0.0 0
M  V30 11 O -6.4989 -2.2332 0.0 0
M  V30 END ATOM
M  V30 BEGIN BOND
M  V30 1 2 1 2
M  V30 2 1 2 3
M  V30 3 2 3 4
M  V30 4 1 3 5
M  V30 5 1 4 6
M  V30 6 2 5 7
M  V30 7 1 6 8
M  V30 8 2 6 9
M  V30 9 1 8 10
M  V30 10 1 9 11
M  V30 11 1 7 9
M  V30 END BOND
M  V30 END CTAB
M  END
>  <Molecule Name>
Vanillin

>  <Activity Label>
0

>  <SMILES>
COc(cc(C=O)cc1)c1O

>  <Molecular Formula>
C8H8O3

>  <InChIKey>
MWOOGOJBHIARFG-UHFFFAOYSA-N

>  <Repellency>
Inactive

>  <Reference DOI>
10.3390/toxics11100837

>  <Target Organism>
Not applied

$$$$
Compound 289
Actelion Java MolfileCreator 2.0

  0  0  0  0  0  0              0 V3000
M  V30 BEGIN CTAB
M  V30 COUNTS 11 11 0 0 0
M  V30 BEGIN ATOM
M  V30 1 O 0.0 0.0 0.0 0
M  V30 2 C -1.37 -0.6141 0.0 0
M  V30 3 C 1.0039 -1.1102 0.0 0
M  V30 4 C -1.2165 -2.1023 0.0 0
M  V30 5 C -2.6692 0.1299 0.0 0
M  V30 6 C 0.2598 -2.4094 0.0 0
M  V30 7 O -3.9684 -0.6259 0.0 0
M  V30 8 C -5.2676 0.1181 0.0 0
M  V30 9 C -6.5668 -0.6377 0.0 0
M  V30 10 C -6.5668 -2.1377 0.0 0
M  V30 11 N -6.5668 -3.6377 0.0 0
M  V30 END ATOM
M  V30 BEGIN BOND
M  V30 1 1 1 2
M  V30 2 1 1 3
M  V30 3 2 2 4
M  V30 4 1 2 5
M  V30 5 2 3 6
M  V30 6 1 5 7
M  V30 7 1 7 8
M  V30 8 1 8 9
M  V30 9 1 9 10
M  V30 10 3 10 11
M  V30 11 1 4 6
M  V30 END BOND
M  V30 END CTAB
M  END
>  <Molecule Name>
beta-Furfuryloxypropionitrile

>  <Activity Label>
0

>  <SMILES>
N#CCCOCc1ccc[o]1

>  <Molecular Formula>
C8H9NO2

>  <InChIKey>
CPCXJCALJSWDQW-UHFFFAOYSA-N

>  <Repellency>
Inactive

>  <Reference DOI>
10.3390/toxics11100837

>  <Target Organism>
Not applied

$$$$
Compound 290
Actelion Java MolfileCreator 2.0

  0  0  0  0  0  0              0 V3000
M  V30 BEGIN CTAB
M  V30 COUNTS 11 11 0 0 0
M  V30 BEGIN ATOM
M  V30 1 O 0.0 0.0 0.0 0
M  V30 2 C 0.0 1.5001 0.0 0
M  V30 3 O -1.2993 2.2443 0.0 0
M  V30 4 C 1.2993 2.2443 0.0 0
M  V30 5 C -2.5987 1.4883 0.0 0
M  V30 6 C 1.2993 3.7445 0.0 0
M  V30 7 C 2.5987 1.5001 0.0 0
M  V30 8 C 2.5987 4.5005 0.0 0
M  V30 9 C 3.898 2.2443 0.0 0
M  V30 10 N 2.5987 6.0006 0.0 0
M  V30 11 C 3.898 3.7445 0.0 0
M  V30 END ATOM
M  V30 BEGIN BOND
M  V30 1 2 1 2
M  V30 2 1 2 3
M  V30 3 1 2 4
M  V30 4 1 3 5
M  V30 5 2 4 6
M  V30 6 1 4 7
M  V30 7 1 6 8
M  V30 8 2 7 9
M  V30 9 1 8 10
M  V30 10 2 8 11
M  V30 11 1 9 11
M  V30 END BOND
M  V30 END CTAB
M  END
>  <Molecule Name>
m-Aminobenzoic acid, methyl ester

>  <Activity Label>
0

>  <SMILES>
COC(c1cc(N)ccc1)=O

>  <Molecular Formula>
C8H9NO2

>  <InChIKey>
VZDNXXPBYLGWOS-UHFFFAOYSA-N

>  <Repellency>
Inactive

>  <Reference DOI>
10.3390/toxics11100837

>  <Target Organism>
Not applied

$$$$
Compound 291
Actelion Java MolfileCreator 2.0

  0  0  0  0  0  0              0 V3000
M  V30 BEGIN CTAB
M  V30 COUNTS 11 11 0 0 0
M  V30 BEGIN ATOM
M  V30 1 S 0.0 0.0 0.0 0
M  V30 2 O 0.7446 1.3002 0.0 0
M  V30 3 O -0.7446 1.3002 0.0 0
M  V30 4 N 1.3002 -0.7446 0.0 0
M  V30 5 C -1.3002 -0.7446 0.0 0
M  V30 6 C 2.6005 0.0 0.0 0
M  V30 7 C -2.6005 0.0118 0.0 0
M  V30 8 C -1.3002 -2.2459 0.0 0
M  V30 9 C -3.9007 -0.7328 0.0 0
M  V30 10 C -2.6005 -2.9906 0.0 0
M  V30 11 C -3.9007 -2.234 0.0 0
M  V30 END ATOM
M  V30 BEGIN BOND
M  V30 1 2 1 2
M  V30 2 2 1 3
M  V30 3 1 1 4
M  V30 4 1 1 5
M  V30 5 1 4 6
M  V30 6 2 5 7
M  V30 7 1 5 8
M  V30 8 1 7 9
M  V30 9 2 8 10
M  V30 10 2 9 11
M  V30 11 1 10 11
M  V30 END BOND
M  V30 END CTAB
M  END
>  <Molecule Name>
N-Methylbenzenesulfonamide

>  <Activity Label>
0

>  <SMILES>
CNS(c1ccccc1)(=O)=O

>  <Molecular Formula>
C7H9NO2S

>  <InChIKey>
SVDVKEBISAOWJT-UHFFFAOYSA-N

>  <Repellency>
Inactive

>  <Reference DOI>
10.3390/toxics11100837

>  <Target Organism>
Not applied

$$$$
Compound 292
Actelion Java MolfileCreator 2.0

  0  0  0  0  0  0              0 V3000
M  V30 BEGIN CTAB
M  V30 COUNTS 11 11 0 0 0
M  V30 BEGIN ATOM
M  V30 1 O 0.0 0.0 0.0 0
M  V30 2 C -1.3009 0.7451 0.0 0
M  V30 3 O -2.6019 0.0 0.0 0
M  V30 4 N -1.3009 2.2471 0.0 0
M  V30 5 C -3.9029 0.7451 0.0 0
M  V30 6 C 0.0 2.9922 0.0 0
M  V30 7 C -2.6019 2.9922 0.0 0
M  V30 8 C -5.2038 0.0 0.0 0
M  V30 9 C 0.0 4.4942 0.0 0
M  V30 10 C -2.6019 4.4942 0.0 0
M  V30 11 O -1.3009 5.2393 0.0 0
M  V30 END ATOM
M  V30 BEGIN BOND
M  V30 1 2 1 2
M  V30 2 1 2 3
M  V30 3 1 2 4
M  V30 4 1 3 5
M  V30 5 1 4 6
M  V30 6 1 4 7
M  V30 7 1 5 8
M  V30 8 1 6 9
M  V30 9 1 7 10
M  V30 10 1 9 11
M  V30 11 1 10 11
M  V30 END BOND
M  V30 END CTAB
M  END
>  <Molecule Name>
N-Carboethoxymorpholine

>  <Activity Label>
0

>  <SMILES>
CCOC(N1CCOCC1)=O

>  <Molecular Formula>
C7H13NO3

>  <InChIKey>
RTBBWCJKGBZVGL-UHFFFAOYSA-N

>  <Repellency>
Inactive

>  <Reference DOI>
10.3390/toxics11100837

>  <Target Organism>
Not applied

$$$$
Compound 293
Actelion Java MolfileCreator 2.0

  0  0  0  0  0  0              0 V3000
M  V30 BEGIN CTAB
M  V30 COUNTS 11 11 0 0 0
M  V30 BEGIN ATOM
M  V30 1 O 0.0 0.0 0.0 0
M  V30 2 N -1.2995 0.7443 0.0 0 CHG=1
M  V30 3 O -1.2995 2.2447 0.0 0 CHG=-1
M  V30 4 C -2.5991 0.0 0.0 0
M  V30 5 C -3.8987 0.7561 0.0 0
M  V30 6 C -2.5991 -1.5004 0.0 0
M  V30 7 C -5.1983 0.0118 0.0 0
M  V30 8 C -3.8987 -2.2447 0.0 0
M  V30 9 C -5.1983 -1.4886 0.0 0
M  V30 10 C -6.4978 0.7679 0.0 0
M  V30 11 O -7.7974 0.0236 0.0 0
M  V30 END ATOM
M  V30 BEGIN BOND
M  V30 1 2 1 2
M  V30 2 1 2 3
M  V30 3 1 2 4
M  V30 4 2 4 5
M  V30 5 1 4 6
M  V30 6 1 5 7
M  V30 7 2 6 8
M  V30 8 2 7 9
M  V30 9 1 7 10
M  V30 10 1 10 11
M  V30 11 1 8 9
M  V30 END BOND
M  V30 END CTAB
M  END
>  <Molecule Name>
m-Nitrobenzyl alcohol

>  <Activity Label>
0

>  <SMILES>
[O-][N+](c1cc(CO)ccc1)=O

>  <Molecular Formula>
C7H7NO3

>  <InChIKey>
CWNPOQFCIIFQDM-UHFFFAOYSA-N

>  <Repellency>
Inactive

>  <Reference DOI>
10.3390/toxics11100837

>  <Target Organism>
Not applied

$$$$
Compound 294
Actelion Java MolfileCreator 2.0

  0  0  0  0  0  0              0 V3000
M  V30 BEGIN CTAB
M  V30 COUNTS 12 12 0 0 0
M  V30 BEGIN ATOM
M  V30 1 C 0.0 0.0 0.0 0
M  V30 2 C 1.2991 0.744 0.0 0
M  V30 3 C -1.2991 0.744 0.0 0
M  V30 4 C 0.0 -1.4999 0.0 0
M  V30 5 C 1.2991 2.2439 0.0 0
M  V30 6 C -1.2991 2.2439 0.0 0
M  V30 7 C 1.4999 -1.4999 0.0 0
M  V30 8 C 0.0 -2.9998 0.0 0
M  V30 9 C -1.4999 -1.4999 0.0 0
M  V30 10 C 0.0 2.9998 0.0 0
M  V30 11 C 2.5982 2.988 0.0 0
M  V30 12 C -2.5982 2.9998 0.0 0
M  V30 END ATOM
M  V30 BEGIN BOND
M  V30 1 2 1 2
M  V30 2 1 1 3
M  V30 3 1 1 4
M  V30 4 1 2 5
M  V30 5 2 3 6
M  V30 6 1 4 7
M  V30 7 1 4 8
M  V30 8 1 4 9
M  V30 9 2 5 10
M  V30 10 1 5 11
M  V30 11 1 6 12
M  V30 12 1 6 10
M  V30 END BOND
M  V30 END CTAB
M  END
>  <Molecule Name>
1,3-Dimethyl-5-tert-butyl benzene

>  <Activity Label>
0

>  <SMILES>
CC(C)(C)c1cc(C)cc(C)c1

>  <Molecular Formula>
C12H18

>  <InChIKey>
FZSPYHREEHYLCB-UHFFFAOYSA-N

>  <Repellency>
Inactive

>  <Reference DOI>
10.3390/toxics11100837

>  <Target Organism>
Not applied

$$$$
Compound 295
Actelion Java MolfileCreator 2.0

  0  0  0  0  0  0              0 V3000
M  V30 BEGIN CTAB
M  V30 COUNTS 12 12 0 0 0
M  V30 BEGIN ATOM
M  V30 1 C 0.0 0.0 0.0 0
M  V30 2 C 0.0 -1.4986 0.0 0
M  V30 3 C -1.298 0.7552 0.0 0
M  V30 4 C 1.298 0.7552 0.0 0
M  V30 5 C -1.298 -2.242 0.0 0
M  V30 6 C -2.596 0.0118 0.0 0
M  V30 7 C 2.596 0.0 0.0 0
M  V30 8 C -2.596 -1.4986 0.0 0
M  V30 9 C -1.298 -3.7407 0.0 0
M  V30 10 C -3.8941 0.767 0.0 0
M  V30 11 C 0.0 -4.4959 0.0 0
M  V30 12 C -5.1921 0.0236 0.0 0
M  V30 END ATOM
M  V30 BEGIN BOND
M  V30 1 2 1 2
M  V30 2 1 1 3
M  V30 3 1 1 4
M  V30 4 1 2 5
M  V30 5 2 3 6
M  V30 6 1 4 7
M  V30 7 2 5 8
M  V30 8 1 5 9
M  V30 9 1 6 10
M  V30 10 1 9 11
M  V30 11 1 10 12
M  V30 12 1 6 8
M  V30 END BOND
M  V30 END CTAB
M  END
>  <Molecule Name>
1,3,5-Triethylbenzene

>  <Activity Label>
0

>  <SMILES>
CCc1cc(CC)cc(CC)c1

>  <Molecular Formula>
C12H18

>  <InChIKey>
WJYMPXJVHNDZHD-UHFFFAOYSA-N

>  <Repellency>
Inactive

>  <Reference DOI>
10.3390/toxics11100837

>  <Target Organism>
Not applied

$$$$
Compound 296
Actelion Java MolfileCreator 2.0

  0  0  0  0  0  0              0 V3000
M  V30 BEGIN CTAB
M  V30 COUNTS 12 12 0 0 0
M  V30 BEGIN ATOM
M  V30 1 O 0.0 0.0 0.0 0
M  V30 2 C -0.3072 1.4652 0.0 0
M  V30 3 O 0.6971 2.576 0.0 0
M  V30 4 C -1.6779 2.0797 0.0 0
M  V30 5 C -0.059 3.8758 0.0 0
M  V30 6 C -2.9778 1.3234 0.0 0
M  V30 7 C -1.5243 3.5686 0.0 0
M  V30 8 C 0.5553 5.2466 0.0 0
M  V30 9 O -2.9778 -0.1772 0.0 0
M  V30 10 O -4.2776 2.0679 0.0 0
M  V30 11 C 2.0442 5.4002 0.0 0
M  V30 12 C -5.5775 1.3116 0.0 0
M  V30 END ATOM
M  V30 BEGIN BOND
M  V30 1 2 1 2
M  V30 2 1 2 3
M  V30 3 1 2 4
M  V30 4 1 3 5
M  V30 5 1 4 6
M  V30 6 1 4 7
M  V30 7 1 5 8
M  V30 8 2 6 9
M  V30 9 1 6 10
M  V30 10 2 8 11
M  V30 11 1 10 12
M  V30 12 1 5 7
M  V30 END BOND
M  V30 END CTAB
M  END
>  <Molecule Name>
gamma-Vinyl-alpha-carbomethoxy-butyrolactone

>  <Activity Label>
0

>  <SMILES>
COC(C(CC(C=C)O1)C1=O)=O

>  <Molecular Formula>
C8H10O4

>  <InChIKey>
HDUTUOKGDKQIKK-UHFFFAOYSA-N

>  <Repellency>
Inactive

>  <Reference DOI>
10.3390/toxics11100837

>  <Target Organism>
Not applied

$$$$
Compound 297
Actelion Java MolfileCreator 2.0

  0  0  0  0  0  0              0 V3000
M  V30 BEGIN CTAB
M  V30 COUNTS 12 12 0 0 0
M  V30 BEGIN ATOM
M  V30 1 O 0.0 0.0 0.0 0
M  V30 2 C 0.0 1.5003 0.0 0
M  V30 3 O 1.2995 2.2446 0.0 0
M  V30 4 C -1.2995 2.2446 0.0 0
M  V30 5 C 2.599 1.4885 0.0 0
M  V30 6 C -2.599 1.4885 0.0 0
M  V30 7 C 3.8986 2.2328 0.0 0
M  V30 8 O -3.9694 2.1028 0.0 0
M  V30 9 O -2.7526 0.0 0.0 0
M  V30 10 C -1.3349 0.6733 0.0 0
M  V30 11 C -4.9736 0.9923 0.0 0
M  V30 12 C -4.2175 -0.3071 0.0 0
M  V30 END ATOM
M  V30 BEGIN BOND
M  V30 1 2 1 2
M  V30 2 1 2 3
M  V30 3 1 2 4
M  V30 4 1 3 5
M  V30 5 1 4 6
M  V30 6 1 5 7
M  V30 7 1 6 8
M  V30 8 1 6 9
M  V30 9 1 6 10
M  V30 10 1 8 11
M  V30 11 1 9 12
M  V30 12 1 11 12
M  V30 END BOND
M  V30 END CTAB
M  END
>  <Molecule Name>
2-Carboethoxymethyl-2-methyl-1, 3-dioxolane

>  <Activity Label>
0

>  <SMILES>
CCOC(CC1(C)OCCO1)=O

>  <Molecular Formula>
C8H14O4

>  <InChIKey>
XWEOGMYZFCHQNT-UHFFFAOYSA-N

>  <Repellency>
Inactive

>  <Reference DOI>
10.3390/toxics11100837

>  <Target Organism>
Not applied

$$$$
Compound 298
Actelion Java MolfileCreator 2.0

  0  0  0  0  0  0              0 V3000
M  V30 BEGIN CTAB
M  V30 COUNTS 12 12 0 0 0
M  V30 BEGIN ATOM
M  V30 1 O 0.0 0.0 0.0 0
M  V30 2 C -1.3003 -0.7447 0.0 0
M  V30 3 C 1.3003 -0.7447 0.0 0
M  V30 4 C -2.6007 0.0118 0.0 0
M  V30 5 C -1.3003 -2.2461 0.0 0
M  V30 6 C 2.6007 0.0 0.0 0
M  V30 7 C -3.9011 -0.7329 0.0 0
M  V30 8 C -2.6007 -2.9908 0.0 0
M  V30 9 O 3.9011 -0.7447 0.0 0
M  V30 10 C -3.9011 -2.2342 0.0 0
M  V30 11 C 5.2015 0.0 0.0 0
M  V30 12 C 6.5018 -0.7447 0.0 0
M  V30 END ATOM
M  V30 BEGIN BOND
M  V30 1 1 1 2
M  V30 2 1 1 3
M  V30 3 2 2 4
M  V30 4 1 2 5
M  V30 5 1 3 6
M  V30 6 1 4 7
M  V30 7 2 5 8
M  V30 8 1 6 9
M  V30 9 2 7 10
M  V30 10 1 9 11
M  V30 11 1 11 12
M  V30 12 1 8 10
M  V30 END BOND
M  V30 END CTAB
M  END
>  <Molecule Name>
beta-Ethoxyphenetole

>  <Activity Label>
0

>  <SMILES>
CCOCCOc1ccccc1

>  <Molecular Formula>
C10H14O2

>  <InChIKey>
DIUJNXCPDGGFQD-UHFFFAOYSA-N

>  <Repellency>
Inactive

>  <Reference DOI>
10.3390/toxics11100837

>  <Target Organism>
Not applied

$$$$
Compound 299
Actelion Java MolfileCreator 2.0

  0  0  0  0  0  0              0 V3000
M  V30 BEGIN CTAB
M  V30 COUNTS 12 12 0 0 0
M  V30 BEGIN ATOM
M  V30 1 O 0.0 0.0 0.0 0
M  V30 2 C 0.0 1.5011 0.0 0
M  V30 3 O -1.3001 2.2457 0.0 0
M  V30 4 C 1.3001 2.2457 0.0 0
M  V30 5 C -2.6003 1.5011 0.0 0
M  V30 6 C 2.6003 1.5011 0.0 0
M  V30 7 C -3.9005 2.2575 0.0 0
M  V30 8 C -2.6003 0.0 0.0 0
M  V30 9 C 3.9005 2.2457 0.0 0
M  V30 10 C -5.2006 1.5129 0.0 0
M  V30 11 C -3.9005 -0.7446 0.0 0
M  V30 12 C -5.2006 0.0118 0.0 0
M  V30 END ATOM
M  V30 BEGIN BOND
M  V30 1 2 1 2
M  V30 2 1 2 3
M  V30 3 1 2 4
M  V30 4 1 3 5
M  V30 5 2 4 6
M  V30 6 1 5 7
M  V30 7 1 5 8
M  V30 8 1 6 9
M  V30 9 1 7 10
M  V30 10 1 8 11
M  V30 11 1 10 12
M  V30 12 1 11 12
M  V30 END BOND
M  V30 END CTAB
M  END
>  <Molecule Name>
Crotonic acid, cyclohexyl ester

>  <Activity Label>
0

>  <SMILES>
C/C=C/C(OC1CCCCC1)=O

>  <Molecular Formula>
C10H16O2

>  <InChIKey>
ZUMGBVSYIVKLDH-QHHAFSJGSA-N

>  <Repellency>
Inactive

>  <Reference DOI>
10.3390/toxics11100837

>  <Target Organism>
Not applied

$$$$
Compound 300
Actelion Java MolfileCreator 2.0

  0  0  0  0  0  0              0 V3000
M  V30 BEGIN CTAB
M  V30 COUNTS 12 12 0 0 0
M  V30 BEGIN ATOM
M  V30 1 O 0.0 0.0 0.0 0
M  V30 2 C 0.0 1.5011 0.0 0
M  V30 3 O -1.3001 2.2457 0.0 0
M  V30 4 C 1.3001 2.2457 0.0 0
M  V30 5 C -2.6003 1.5011 0.0 0
M  V30 6 C 2.6003 1.5011 0.0 0
M  V30 7 C -3.9005 2.2575 0.0 0
M  V30 8 C -2.6003 0.0 0.0 0
M  V30 9 C 3.9005 2.2457 0.0 0
M  V30 10 C -5.2006 1.5129 0.0 0
M  V30 11 C -3.9005 -0.7446 0.0 0
M  V30 12 C -5.2006 0.0118 0.0 0
M  V30 END ATOM
M  V30 BEGIN BOND
M  V30 1 2 1 2
M  V30 2 1 2 3
M  V30 3 1 2 4
M  V30 4 1 3 5
M  V30 5 1 4 6
M  V30 6 2 5 7
M  V30 7 1 5 8
M  V30 8 1 6 9
M  V30 9 1 7 10
M  V30 10 2 8 11
M  V30 11 2 10 12
M  V30 12 1 11 12
M  V30 END BOND
M  V30 END CTAB
M  END
>  <Molecule Name>
Butyric acid, phenyl ester

>  <Activity Label>
0

>  <SMILES>
CCCC(Oc1ccccc1)=O

>  <Molecular Formula>
C10H12O2

>  <InChIKey>
IGVPBCZDHMIOJH-UHFFFAOYSA-N

>  <Repellency>
Inactive

>  <Reference DOI>
10.3390/toxics11100837

>  <Target Organism>
Not applied

$$$$
Compound 301
Actelion Java MolfileCreator 2.0

  0  0  0  0  0  0              0 V3000
M  V30 BEGIN CTAB
M  V30 COUNTS 12 12 0 0 0
M  V30 BEGIN ATOM
M  V30 1 O 0.0 0.0 0.0 0
M  V30 2 C 0.0 1.5011 0.0 0
M  V30 3 O -1.3001 2.2457 0.0 0
M  V30 4 C 1.3001 2.2457 0.0 0
M  V30 5 C -2.6003 1.5011 0.0 0
M  V30 6 C 2.6003 1.5011 0.0 0
M  V30 7 C -3.9005 2.2575 0.0 0
M  V30 8 C -2.6003 0.0 0.0 0
M  V30 9 C 3.9005 2.2457 0.0 0
M  V30 10 C -5.2006 1.5129 0.0 0
M  V30 11 C -3.9005 -0.7446 0.0 0
M  V30 12 C -5.2006 0.0118 0.0 0
M  V30 END ATOM
M  V30 BEGIN BOND
M  V30 1 2 1 2
M  V30 2 1 2 3
M  V30 3 1 2 4
M  V30 4 1 3 5
M  V30 5 1 4 6
M  V30 6 1 5 7
M  V30 7 1 5 8
M  V30 8 1 6 9
M  V30 9 1 7 10
M  V30 10 1 8 11
M  V30 11 1 10 12
M  V30 12 1 11 12
M  V30 END BOND
M  V30 END CTAB
M  END
>  <Molecule Name>
n-Butyric acid, cyclohexyl ester

>  <Activity Label>
0

>  <SMILES>
CCCC(OC1CCCCC1)=O

>  <Molecular Formula>
C10H18O2

>  <InChIKey>
VZHUBBUZNIULNM-UHFFFAOYSA-N

>  <Repellency>
Inactive

>  <Reference DOI>
10.3390/toxics11100837

>  <Target Organism>
Not applied

$$$$
Compound 302
Actelion Java MolfileCreator 2.0

  0  0  0  0  0  0              0 V3000
M  V30 BEGIN CTAB
M  V30 COUNTS 12 12 0 0 0
M  V30 BEGIN ATOM
M  V30 1 O 0.0 0.0 0.0 0
M  V30 2 C 0.0 1.5006 0.0 0
M  V30 3 O -1.2997 2.245 0.0 0
M  V30 4 C 1.2997 2.245 0.0 0
M  V30 5 C -2.5994 1.5006 0.0 0
M  V30 6 C 2.5994 1.5006 0.0 0
M  V30 7 C -3.8992 2.2568 0.0 0
M  V30 8 C -2.5994 0.0 0.0 0
M  V30 9 C -5.1989 1.5124 0.0 0
M  V30 10 C -3.8992 -0.7444 0.0 0
M  V30 11 C -5.1989 0.0118 0.0 0
M  V30 12 C -6.4987 2.2686 0.0 0
M  V30 END ATOM
M  V30 BEGIN BOND
M  V30 1 2 1 2
M  V30 2 1 2 3
M  V30 3 1 2 4
M  V30 4 1 3 5
M  V30 5 1 4 6
M  V30 6 2 5 7
M  V30 7 1 5 8
M  V30 8 1 7 9
M  V30 9 2 8 10
M  V30 10 2 9 11
M  V30 11 1 9 12
M  V30 12 1 10 11
M  V30 END BOND
M  V30 END CTAB
M  END
>  <Molecule Name>
Propionic acid, m-tolyl ester

>  <Activity Label>
0

>  <SMILES>
CCC(Oc1cc(C)ccc1)=O

>  <Molecular Formula>
C10H12O2

>  <InChIKey>
BWVHRHNRHJKPAH-UHFFFAOYSA-N

>  <Repellency>
Inactive

>  <Reference DOI>
10.3390/toxics11100837

>  <Target Organism>
Not applied

$$$$
Compound 303
Actelion Java MolfileCreator 2.0

  0  0  0  0  0  0              0 V3000
M  V30 BEGIN CTAB
M  V30 COUNTS 12 12 0 0 0
M  V30 BEGIN ATOM
M  V30 1 O 0.0 0.0 0.0 0
M  V30 2 C 0.0 1.5008 0.0 0
M  V30 3 O -1.2999 2.2454 0.0 0
M  V30 4 C 1.2999 2.2454 0.0 0
M  V30 5 C -2.5999 1.5008 0.0 0
M  V30 6 C 2.5999 1.5008 0.0 0
M  V30 7 C -3.8999 2.2572 0.0 0
M  V30 8 C -2.5999 0.0 0.0 0
M  V30 9 C -5.1998 1.5126 0.0 0
M  V30 10 C -3.8999 3.7581 0.0 0
M  V30 11 C -3.8999 -0.7445 0.0 0
M  V30 12 C -5.1998 0.0118 0.0 0
M  V30 END ATOM
M  V30 BEGIN BOND
M  V30 1 2 1 2
M  V30 2 1 2 3
M  V30 3 1 2 4
M  V30 4 1 3 5
M  V30 5 1 4 6
M  V30 6 2 5 7
M  V30 7 1 5 8
M  V30 8 1 7 9
M  V30 9 1 7 10
M  V30 10 2 8 11
M  V30 11 2 9 12
M  V30 12 1 11 12
M  V30 END BOND
M  V30 END CTAB
M  END
>  <Molecule Name>
Propionic acid, o-tolyl ester

>  <Activity Label>
0

>  <SMILES>
CCC(Oc1c(C)cccc1)=O

>  <Molecular Formula>
C10H12O2

>  <InChIKey>
XLLPLDFNCXWUOT-UHFFFAOYSA-N

>  <Repellency>
Inactive

>  <Reference DOI>
10.3390/toxics11100837

>  <Target Organism>
Not applied

$$$$
Compound 304
Actelion Java MolfileCreator 2.0

  0  0  0  0  0  0              0 V3000
M  V30 BEGIN CTAB
M  V30 COUNTS 12 12 0 0 0
M  V30 BEGIN ATOM
M  V30 1 O 0.0 0.0 0.0 0
M  V30 2 C 0.0 1.502 0.0 0
M  V30 3 O -1.301 2.2472 0.0 0
M  V30 4 C 1.301 2.2472 0.0 0
M  V30 5 C -2.602 1.502 0.0 0
M  V30 6 C 2.602 1.502 0.0 0
M  V30 7 C 1.301 3.7493 0.0 0
M  V30 8 C -3.903 2.2472 0.0 0
M  V30 9 C 3.903 2.2472 0.0 0
M  V30 10 C 2.602 4.4944 0.0 0
M  V30 11 C -5.2041 1.502 0.0 0
M  V30 12 C 3.903 3.7493 0.0 0
M  V30 END ATOM
M  V30 BEGIN BOND
M  V30 1 2 1 2
M  V30 2 1 2 3
M  V30 3 1 2 4
M  V30 4 1 3 5
M  V30 5 2 4 6
M  V30 6 1 4 7
M  V30 7 1 5 8
M  V30 8 1 6 9
M  V30 9 2 7 10
M  V30 10 2 8 11
M  V30 11 2 9 12
M  V30 12 1 10 12
M  V30 END BOND
M  V30 END CTAB
M  END
>  <Molecule Name>
Benzoic acid, allyl ester

>  <Activity Label>
0

>  <SMILES>
C=CCOC(c1ccccc1)=O

>  <Molecular Formula>
C10H10O2

>  <InChIKey>
LYJHVEDILOKZCG-UHFFFAOYSA-N

>  <Repellency>
Inactive

>  <Reference DOI>
10.3390/toxics11100837

>  <Target Organism>
Not applied

$$$$
Compound 305
Actelion Java MolfileCreator 2.0

  0  0  0  0  0  0              0 V3000
M  V30 BEGIN CTAB
M  V30 COUNTS 12 12 0 0 0
M  V30 BEGIN ATOM
M  V30 1 O 0.0 0.0 0.0 0
M  V30 2 C 0.0 1.502 0.0 0
M  V30 3 O -1.301 2.2472 0.0 0
M  V30 4 C 1.301 2.2472 0.0 0
M  V30 5 C -2.602 1.502 0.0 0
M  V30 6 C 2.602 1.502 0.0 0
M  V30 7 C 1.301 3.7493 0.0 0
M  V30 8 C -3.903 2.2472 0.0 0
M  V30 9 C 3.903 2.2472 0.0 0
M  V30 10 C 2.602 4.4944 0.0 0
M  V30 11 C -5.2041 1.502 0.0 0
M  V30 12 C 3.903 3.7493 0.0 0
M  V30 END ATOM
M  V30 BEGIN BOND
M  V30 1 2 1 2
M  V30 2 1 2 3
M  V30 3 1 2 4
M  V30 4 1 3 5
M  V30 5 2 4 6
M  V30 6 1 4 7
M  V30 7 1 5 8
M  V30 8 1 6 9
M  V30 9 2 7 10
M  V30 10 1 8 11
M  V30 11 2 9 12
M  V30 12 1 10 12
M  V30 END BOND
M  V30 END CTAB
M  END
>  <Molecule Name>
Benzoic acid, propyl ester

>  <Activity Label>
0

>  <SMILES>
CCCOC(c1ccccc1)=O

>  <Molecular Formula>
C10H12O2

>  <InChIKey>
UDEWPOVQBGFNGE-UHFFFAOYSA-N

>  <Repellency>
Inactive

>  <Reference DOI>
10.3390/toxics11100837

>  <Target Organism>
Not applied

$$$$
Compound 306
Actelion Java MolfileCreator 2.0

  0  0  0  0  0  0              0 V3000
M  V30 BEGIN CTAB
M  V30 COUNTS 12 12 0 0 0
M  V30 BEGIN ATOM
M  V30 1 O 0.0 0.0 0.0 0
M  V30 2 C 0.0 -1.4994 0.0 0
M  V30 3 O -1.2986 -2.255 0.0 0
M  V30 4 C 1.2986 -2.255 0.0 0
M  V30 5 C -2.5973 -1.5112 0.0 0
M  V30 6 C 2.5973 -1.5112 0.0 0
M  V30 7 C 1.2986 -3.7544 0.0 0
M  V30 8 C -3.896 -2.2668 0.0 0
M  V30 9 C 3.896 -2.2668 0.0 0
M  V30 10 C 2.5973 -0.0118 0.0 0
M  V30 11 C 2.5973 -4.51 0.0 0
M  V30 12 C 3.896 -3.7662 0.0 0
M  V30 END ATOM
M  V30 BEGIN BOND
M  V30 1 2 1 2
M  V30 2 1 2 3
M  V30 3 1 2 4
M  V30 4 1 3 5
M  V30 5 2 4 6
M  V30 6 1 4 7
M  V30 7 1 5 8
M  V30 8 1 6 9
M  V30 9 1 6 10
M  V30 10 2 7 11
M  V30 11 2 9 12
M  V30 12 1 11 12
M  V30 END BOND
M  V30 END CTAB
M  END
>  <Molecule Name>
o-Toluic acid, ethyl ester

>  <Activity Label>
0

>  <SMILES>
CCOC(c1c(C)cccc1)=O

>  <Molecular Formula>
C10H12O2

>  <InChIKey>
SOUAXOGPALPTTC-UHFFFAOYSA-N

>  <Repellency>
Inactive

>  <Reference DOI>
10.3390/toxics11100837

>  <Target Organism>
Not applied

$$$$
Compound 307
Actelion Java MolfileCreator 2.0

  0  0  0  0  0  0              0 V3000
M  V30 BEGIN CTAB
M  V30 COUNTS 12 12 0 0 0
M  V30 BEGIN ATOM
M  V30 1 O 0.0 0.0 0.0 0
M  V30 2 C 0.0 1.4998 0.0 0
M  V30 3 O -1.2991 2.2439 0.0 0
M  V30 4 C 1.2991 2.2439 0.0 0 CFG=1
M  V30 5 C -2.5982 1.488 0.0 0
M  V30 6 C 2.5982 1.488 0.0 0
M  V30 7 C 1.2991 3.7438 0.0 0
M  V30 8 C 2.5982 -0.0118 0.0 0
M  V30 9 C 3.8973 2.2321 0.0 0
M  V30 10 C 3.8973 -0.7676 0.0 0
M  V30 11 C 5.1964 1.4762 0.0 0
M  V30 12 C 5.1964 -0.0236 0.0 0
M  V30 END ATOM
M  V30 BEGIN BOND
M  V30 1 2 1 2
M  V30 2 1 2 3
M  V30 3 1 2 4
M  V30 4 1 3 5
M  V30 5 1 4 6
M  V30 6 1 4 7 CFG=3
M  V30 7 2 6 8
M  V30 8 1 6 9
M  V30 9 1 8 10
M  V30 10 2 9 11
M  V30 11 2 10 12
M  V30 12 1 11 12
M  V30 END BOND
M  V30 BEGIN COLLECTION
M  V30 MDLV30/STERAC1 ATOMS=(1 4)
M  V30 END COLLECTION
M  V30 END CTAB
M  END
>  <Molecule Name>
alpha-Phenylpropionic acid, methyl ester

>  <Activity Label>
0

>  <SMILES>
CC(C(OC)=O)c1ccccc1

>  <Molecular Formula>
C10H12O2

>  <InChIKey>
DZIQUZJSNSZOCH-UHFFFAOYSA-N

>  <Repellency>
Inactive

>  <Reference DOI>
10.3390/toxics11100837

>  <Target Organism>
Not applied

$$$$
Compound 308
Actelion Java MolfileCreator 2.0

  0  0  0  0  0  0              0 V3000
M  V30 BEGIN CTAB
M  V30 COUNTS 12 12 0 0 0
M  V30 BEGIN ATOM
M  V30 1 O 0.0 0.0 0.0 0
M  V30 2 C 0.0 1.5001 0.0 0
M  V30 3 O -1.2993 2.2443 0.0 0
M  V30 4 C 1.2993 2.2443 0.0 0
M  V30 5 C -2.5986 1.4883 0.0 0
M  V30 6 C -2.5986 2.9884 0.0 0
M  V30 7 C -3.898 0.7441 0.0 0
M  V30 8 C -1.2993 0.7323 0.0 0
M  V30 9 C -2.5986 4.4886 0.0 0
M  V30 10 C -3.898 -0.7559 0.0 0
M  V30 11 C -1.2993 -0.7677 0.0 0
M  V30 12 C -2.5986 -1.5119 0.0 0
M  V30 END ATOM
M  V30 BEGIN BOND
M  V30 1 2 1 2
M  V30 2 1 2 3
M  V30 3 1 2 4
M  V30 4 1 3 5
M  V30 5 1 5 6
M  V30 6 1 5 7
M  V30 7 1 5 8
M  V30 8 3 6 9
M  V30 9 1 7 10
M  V30 10 1 8 11
M  V30 11 1 10 12
M  V30 12 1 11 12
M  V30 END BOND
M  V30 END CTAB
M  END
>  <Molecule Name>
Acetic acid, 1-ethynylcyclohexyl ester

>  <Activity Label>
0

>  <SMILES>
CC(OC1(CCCCC1)C#C)=O

>  <Molecular Formula>
C10H14O2

>  <InChIKey>
YASSLXHVJQGNOK-UHFFFAOYSA-N

>  <Repellency>
Inactive

>  <Reference DOI>
10.3390/toxics11100837

>  <Target Organism>
Not applied

$$$$
Compound 309
Actelion Java MolfileCreator 2.0

  0  0  0  0  0  0              0 V3000
M  V30 BEGIN CTAB
M  V30 COUNTS 12 12 0 0 0
M  V30 BEGIN ATOM
M  V30 1 O 0.0 0.0 0.0 0
M  V30 2 C 0.0 -1.4994 0.0 0
M  V30 3 O -1.2986 -2.255 0.0 0
M  V30 4 C 1.2986 -2.255 0.0 0
M  V30 5 C -2.5973 -1.5112 0.0 0
M  V30 6 C 1.2986 -3.7544 0.0 0
M  V30 7 C 2.5973 -1.5112 0.0 0
M  V30 8 C -2.5973 -0.0118 0.0 0
M  V30 9 C -3.896 -2.2668 0.0 0
M  V30 10 C 2.5973 -4.51 0.0 0
M  V30 11 C 3.896 -2.2668 0.0 0
M  V30 12 C 3.896 -3.7662 0.0 0
M  V30 END ATOM
M  V30 BEGIN BOND
M  V30 1 2 1 2
M  V30 2 1 2 3
M  V30 3 1 2 4
M  V30 4 1 3 5
M  V30 5 2 4 6
M  V30 6 1 4 7
M  V30 7 1 5 8
M  V30 8 1 5 9
M  V30 9 1 6 10
M  V30 10 2 7 11
M  V30 11 2 10 12
M  V30 12 1 11 12
M  V30 END BOND
M  V30 END CTAB
M  END
>  <Molecule Name>
Benzoic acid, iso-propyl ester

>  <Activity Label>
0

>  <SMILES>
CC(C)OC(c1ccccc1)=O

>  <Molecular Formula>
C10H12O2

>  <InChIKey>
FEXQDZTYJVXMOS-UHFFFAOYSA-N

>  <Repellency>
Inactive

>  <Reference DOI>
10.3390/toxics11100837

>  <Target Organism>
Not applied

$$$$
Compound 310
Actelion Java MolfileCreator 2.0

  0  0  0  0  0  0              0 V3000
M  V30 BEGIN CTAB
M  V30 COUNTS 12 12 0 0 0
M  V30 BEGIN ATOM
M  V30 1 O 0.0 0.0 0.0 0
M  V30 2 C 1.3007 -0.7568 0.0 0
M  V30 3 C 2.6015 -0.0118 0.0 0
M  V30 4 C 1.3007 -2.2586 0.0 0
M  V30 5 C 3.9023 -0.7686 0.0 0
M  V30 6 C 2.6015 -3.0036 0.0 0
M  V30 7 O 5.2031 -0.0236 0.0 0
M  V30 8 C 3.9023 -2.2704 0.0 0
M  V30 9 C 6.5039 -0.7686 0.0 0
M  V30 10 C 7.8047 -0.0236 0.0 0
M  V30 11 C 9.1055 -0.7686 0.0 0
M  V30 12 C 10.4063 -0.0236 0.0 0
M  V30 END ATOM
M  V30 BEGIN BOND
M  V30 1 2 1 2
M  V30 2 1 2 3
M  V30 3 1 2 4
M  V30 4 2 3 5
M  V30 5 1 4 6
M  V30 6 1 5 7
M  V30 7 1 5 8
M  V30 8 1 7 9
M  V30 9 1 9 10
M  V30 10 1 10 11
M  V30 11 1 11 12
M  V30 12 1 6 8
M  V30 END BOND
M  V30 END CTAB
M  END
>  <Molecule Name>
3-Butoxy-2-cyclohexene-1-one

>  <Activity Label>
0

>  <SMILES>
CCCCOC(CCC1)=CC1=O

>  <Molecular Formula>
C10H16O2

>  <InChIKey>
HQFGJBVERCJECK-UHFFFAOYSA-N

>  <Repellency>
Inactive

>  <Reference DOI>
10.3390/toxics11100837

>  <Target Organism>
Not applied

$$$$
Compound 311
Actelion Java MolfileCreator 2.0

  0  0  0  0  0  0              0 V3000
M  V30 BEGIN CTAB
M  V30 COUNTS 12 12 0 0 0
M  V30 BEGIN ATOM
M  V30 1 O 0.0 0.0 0.0 0
M  V30 2 C -1.2995 -0.7442 0.0 0
M  V30 3 C 0.0 1.5003 0.0 0
M  V30 4 C -2.599 0.0 0.0 0
M  V30 5 C -2.0556 -2.0437 0.0 0
M  V30 6 C -0.5552 -2.0437 0.0 0
M  V30 7 O -1.2995 2.2564 0.0 0
M  V30 8 C 1.2995 2.2446 0.0 0
M  V30 9 C -2.599 1.5003 0.0 0
M  V30 10 C 2.599 1.5003 0.0 0
M  V30 11 C -3.8985 2.2564 0.0 0
M  V30 12 C 3.8985 2.2446 0.0 0
M  V30 END ATOM
M  V30 BEGIN BOND
M  V30 1 1 1 2
M  V30 2 1 1 3
M  V30 3 1 2 4
M  V30 4 1 2 5
M  V30 5 1 2 6
M  V30 6 1 3 7
M  V30 7 1 3 8
M  V30 8 1 4 9
M  V30 9 2 8 10 CFG=2
M  V30 10 1 9 11
M  V30 11 1 10 12
M  V30 12 1 7 9
M  V30 END BOND
M  V30 END CTAB
M  END
>  <Molecule Name>
2-Propenyl-4,4,6-trimethyl-m-dioxane

>  <Activity Label>
0

>  <SMILES>
CC1OC(C=CC)OC(C)(C)C1

>  <Molecular Formula>
C10H18O2

>  <InChIKey>
KYIPJDJFXLVIDL-UHFFFAOYSA-N

>  <Repellency>
Inactive

>  <Reference DOI>
10.3390/toxics11100837

>  <Target Organism>
Not applied

$$$$
Compound 312
Actelion Java MolfileCreator 2.0

  0  0  0  0  0  0              0 V3000
M  V30 BEGIN CTAB
M  V30 COUNTS 12 12 0 0 0
M  V30 BEGIN ATOM
M  V30 1 O 0.0 0.0 0.0 0
M  V30 2 C -1.3012 0.7452 0.0 0
M  V30 3 C 1.3012 0.7452 0.0 0
M  V30 4 C -2.6024 0.0 0.0 0
M  V30 5 C -1.3012 2.2475 0.0 0
M  V30 6 C -3.9036 0.7452 0.0 0
M  V30 7 O 0.0 2.9928 0.0 0
M  V30 8 C -2.6024 2.9928 0.0 0
M  V30 9 C -3.9036 2.2475 0.0 0
M  V30 10 C -5.2049 0.0 0.0 0
M  V30 11 C -6.5061 0.7452 0.0 0
M  V30 12 C -7.8073 0.0 0.0 0
M  V30 END ATOM
M  V30 BEGIN BOND
M  V30 1 1 1 2
M  V30 2 1 1 3
M  V30 3 1 2 4
M  V30 4 1 2 5
M  V30 5 2 4 6
M  V30 6 1 5 7
M  V30 7 1 5 8
M  V30 8 1 6 9
M  V30 9 1 6 10
M  V30 10 1 10 11
M  V30 11 2 11 12
M  V30 12 2 8 9
M  V30 END BOND
M  V30 END CTAB
M  END
>  <Molecule Name>
Dihydroeugenol

>  <Activity Label>
0

>  <SMILES>
COC1C=C(CC=C)C=CC1O

>  <Molecular Formula>
C10H14O2

>  <InChIKey>
DVSDEXBFPJVTGH-UHFFFAOYSA-N

>  <Repellency>
Inactive

>  <Reference DOI>
10.3390/toxics11100837

>  <Target Organism>
Not applied

$$$$
Compound 313
Actelion Java MolfileCreator 2.0

  0  0  0  0  0  0              0 V3000
M  V30 BEGIN CTAB
M  V30 COUNTS 12 12 0 0 0
M  V30 BEGIN ATOM
M  V30 1 O 0.0 0.0 0.0 0
M  V30 2 C -1.2995 0.7442 0.0 0
M  V30 3 C -2.599 0.0 0.0 0
M  V30 4 C -3.8986 0.756 0.0 0
M  V30 5 C -2.599 -1.5003 0.0 0
M  V30 6 C -1.2995 -0.756 0.0 0
M  V30 7 C -5.1981 0.0118 0.0 0
M  V30 8 C -3.8986 2.2564 0.0 0
M  V30 9 C -3.8986 -2.2446 0.0 0
M  V30 10 O -1.2995 -2.2564 0.0 0
M  V30 11 C -5.1981 -1.4885 0.0 0
M  V30 12 C -6.4977 -2.2328 0.0 0
M  V30 END ATOM
M  V30 BEGIN BOND
M  V30 1 1 1 2
M  V30 2 1 2 3
M  V30 3 1 3 4
M  V30 4 1 3 5
M  V30 5 1 3 6
M  V30 6 1 4 7
M  V30 7 1 4 8
M  V30 8 1 5 9
M  V30 9 1 6 10
M  V30 10 1 7 11
M  V30 11 1 11 12
M  V30 12 1 9 11
M  V30 END BOND
M  V30 END CTAB
M  END
>  <Molecule Name>
1,1-Dimethylol-2,4-dimethyl-cyclohexane

>  <Activity Label>
0

>  <SMILES>
CC1CC(C)C(CO)(CO)CC1

>  <Molecular Formula>
C10H20O2

>  <InChIKey>
UPQYDWCYKWMWHI-UHFFFAOYSA-N

>  <Repellency>
Inactive

>  <Reference DOI>
10.3390/toxics11100837

>  <Target Organism>
Not applied

$$$$
Compound 314
Actelion Java MolfileCreator 2.0

  0  0  0  0  0  0              0 V3000
M  V30 BEGIN CTAB
M  V30 COUNTS 12 12 0 0 0
M  V30 BEGIN ATOM
M  V30 1 O 0.0 0.0 0.0 0
M  V30 2 C 1.2997 -0.7562 0.0 0
M  V30 3 C 1.2997 -2.2568 0.0 0
M  V30 4 C 2.5994 -3.013 0.0 0
M  V30 5 C 0.0 -3.0012 0.0 0
M  V30 6 O 3.8992 -2.2686 0.0 0
M  V30 7 C 2.5994 -4.5136 0.0 0
M  V30 8 C 0.0 -4.5018 0.0 0
M  V30 9 C 5.1989 -3.013 0.0 0
M  V30 10 C 1.2997 -5.258 0.0 0
M  V30 11 C 6.4987 -2.2686 0.0 0
M  V30 12 C 7.7984 -3.013 0.0 0
M  V30 END ATOM
M  V30 BEGIN BOND
M  V30 1 2 1 2
M  V30 2 1 2 3
M  V30 3 2 3 4
M  V30 4 1 3 5
M  V30 5 1 4 6
M  V30 6 1 4 7
M  V30 7 2 5 8
M  V30 8 1 6 9
M  V30 9 2 7 10
M  V30 10 1 9 11
M  V30 11 1 11 12
M  V30 12 1 8 10
M  V30 END BOND
M  V30 END CTAB
M  END
>  <Molecule Name>
o-n-Propoxybenzaldehyde

>  <Activity Label>
0

>  <SMILES>
CCCOc1c(C=O)cccc1

>  <Molecular Formula>
C10H12O2

>  <InChIKey>
CDUPASLURGOXGD-UHFFFAOYSA-N

>  <Repellency>
Inactive

>  <Reference DOI>
10.3390/toxics11100837

>  <Target Organism>
Not applied

$$$$
Compound 315
Actelion Java MolfileCreator 2.0

  0  0  0  0  0  0              0 V3000
M  V30 BEGIN CTAB
M  V30 COUNTS 12 12 0 0 0
M  V30 BEGIN ATOM
M  V30 1 O 0.0 0.0 0.0 0
M  V30 2 C -1.2993 -0.7559 0.0 0
M  V30 3 C 1.2993 -0.7559 0.0 0
M  V30 4 O -2.5986 -0.0118 0.0 0
M  V30 5 C -1.2993 -2.256 0.0 0
M  V30 6 C -3.8979 -0.7677 0.0 0
M  V30 7 C 0.0 -3.0002 0.0 0
M  V30 8 C 0.0 -4.5003 0.0 0
M  V30 9 C 1.2993 -2.256 0.0 0
M  V30 10 C 1.2993 -5.2563 0.0 0
M  V30 11 C 2.5986 -3.012 0.0 0
M  V30 12 C 2.5986 -4.5003 0.0 0
M  V30 END ATOM
M  V30 BEGIN BOND
M  V30 1 1 1 2
M  V30 2 1 1 3
M  V30 3 1 2 4
M  V30 4 1 2 5
M  V30 5 1 4 6
M  V30 6 1 5 7
M  V30 7 2 7 8
M  V30 8 1 7 9
M  V30 9 1 8 10
M  V30 10 2 9 11
M  V30 11 2 10 12
M  V30 12 1 11 12
M  V30 END BOND
M  V30 END CTAB
M  END
>  <Molecule Name>
Phenyl acetaldehyde dimethyl acetal

>  <Activity Label>
0

>  <SMILES>
COC(Cc1ccccc1)OC

>  <Molecular Formula>
C10H14O2

>  <InChIKey>
WNJSKZBEWNVKGU-UHFFFAOYSA-N

>  <Repellency>
Inactive

>  <Reference DOI>
10.3390/toxics11100837

>  <Target Organism>
Not applied

$$$$
Compound 316
Actelion Java MolfileCreator 2.0

  0  0  0  0  0  0              0 V3000
M  V30 BEGIN CTAB
M  V30 COUNTS 12 12 0 0 0
M  V30 BEGIN ATOM
M  V30 1 O 0.0 0.0 0.0 0
M  V30 2 C 0.0 1.4983 0.0 0
M  V30 3 C -1.2978 -0.7432 0.0 0
M  V30 4 O -1.2978 2.2534 0.0 0
M  V30 5 C 1.2978 2.2534 0.0 0
M  V30 6 C 1.2978 0.7432 0.0 0
M  V30 7 C -2.5956 0.0 0.0 0
M  V30 8 C -2.0529 -2.0411 0.0 0
M  V30 9 C -0.5545 -2.0411 0.0 0
M  V30 10 C -2.5956 1.5101 0.0 0
M  V30 11 C 2.5956 1.4983 0.0 0
M  V30 12 C -3.8934 2.2652 0.0 0
M  V30 END ATOM
M  V30 BEGIN BOND
M  V30 1 1 1 2
M  V30 2 1 1 3
M  V30 3 1 2 4
M  V30 4 1 2 5
M  V30 5 1 2 6
M  V30 6 1 3 7
M  V30 7 1 3 8
M  V30 8 1 3 9
M  V30 9 1 4 10
M  V30 10 1 5 11
M  V30 11 1 10 12
M  V30 12 1 7 10
M  V30 END BOND
M  V30 END CTAB
M  END
>  <Molecule Name>
2-Ethyl-2,4,4, 6-tetramethyl-m-dioxane

>  <Activity Label>
0

>  <SMILES>
CCC1(C)OC(C)(C)CC(C)O1

>  <Molecular Formula>
C10H20O2

>  <InChIKey>
KBLNPGQGBUFFKV-UHFFFAOYSA-N

>  <Repellency>
Inactive

>  <Reference DOI>
10.3390/toxics11100837

>  <Target Organism>
Not applied

$$$$
Compound 317
Actelion Java MolfileCreator 2.0

  0  0  0  0  0  0              0 V3000
M  V30 BEGIN CTAB
M  V30 COUNTS 12 12 0 0 0
M  V30 BEGIN ATOM
M  V30 1 O 0.0 0.0 0.0 0
M  V30 2 C -1.2999 -0.7445 0.0 0
M  V30 3 C 1.2999 -0.7445 0.0 0
M  V30 4 C -2.5999 0.0118 0.0 0
M  V30 5 C -1.2999 -2.2454 0.0 0
M  V30 6 C 2.5999 0.0 0.0 0
M  V30 7 C -3.8999 -0.7327 0.0 0
M  V30 8 C -2.5999 1.5126 0.0 0
M  V30 9 C -2.5999 -2.9899 0.0 0
M  V30 10 C -3.8999 -2.2335 0.0 0
M  V30 11 C -1.2999 2.2572 0.0 0
M  V30 12 O -1.2999 3.7581 0.0 0
M  V30 END ATOM
M  V30 BEGIN BOND
M  V30 1 1 1 2
M  V30 2 1 1 3
M  V30 3 2 2 4
M  V30 4 1 2 5
M  V30 5 1 3 6
M  V30 6 1 4 7
M  V30 7 1 4 8
M  V30 8 2 5 9
M  V30 9 2 7 10
M  V30 10 1 8 11
M  V30 11 1 11 12
M  V30 12 1 9 10
M  V30 END BOND
M  V30 END CTAB
M  END
>  <Molecule Name>
o-Ethoxyphenethyl alcohol

>  <Activity Label>
0

>  <SMILES>
CCOc1c(CCO)cccc1

>  <Molecular Formula>
C10H14O2

>  <InChIKey>
UYWQRBZEOLFRRI-UHFFFAOYSA-N

>  <Repellency>
Inactive

>  <Reference DOI>
10.3390/toxics11100837

>  <Target Organism>
Not applied

$$$$
Compound 318
Actelion Java MolfileCreator 2.0

  0  0  0  0  0  0              0 V3000
M  V30 BEGIN CTAB
M  V30 COUNTS 12 12 0 0 0
M  V30 BEGIN ATOM
M  V30 1 O 0.0 0.0 0.0 0
M  V30 2 C -1.2999 -0.7445 0.0 0
M  V30 3 C 1.2999 -0.7445 0.0 0
M  V30 4 C -2.5999 0.0118 0.0 0
M  V30 5 C -1.2999 -2.2454 0.0 0
M  V30 6 C 2.5999 0.0 0.0 0
M  V30 7 C 1.2999 -2.2454 0.0 0
M  V30 8 C -3.8999 -0.7327 0.0 0
M  V30 9 C -2.5999 -2.9899 0.0 0
M  V30 10 C -3.8999 -2.2335 0.0 0
M  V30 11 C -5.1998 -2.9781 0.0 0
M  V30 12 O -5.1998 -4.4789 0.0 0
M  V30 END ATOM
M  V30 BEGIN BOND
M  V30 1 1 1 2
M  V30 2 1 1 3
M  V30 3 2 2 4
M  V30 4 1 2 5
M  V30 5 1 3 6
M  V30 6 1 3 7
M  V30 7 1 4 8
M  V30 8 2 5 9
M  V30 9 2 8 10
M  V30 10 1 10 11
M  V30 11 1 11 12
M  V30 12 1 9 10
M  V30 END BOND
M  V30 END CTAB
M  END
>  <Molecule Name>
p-iso-Propoxybenzyl alcohol

>  <Activity Label>
0

>  <SMILES>
CC(C)Oc1ccc(CO)cc1

>  <Molecular Formula>
C10H14O2

>  <InChIKey>
ZNJLQCPPAZECMW-UHFFFAOYSA-N

>  <Repellency>
Inactive

>  <Reference DOI>
10.3390/toxics11100837

>  <Target Organism>
Not applied

$$$$
Compound 319
Actelion Java MolfileCreator 2.0

  0  0  0  0  0  0              0 V3000
M  V30 BEGIN CTAB
M  V30 COUNTS 12 12 0 0 0
M  V30 BEGIN ATOM
M  V30 1 Cl 0.0 0.0 0.0 0
M  V30 2 C -1.2993 -0.7441 0.0 0
M  V30 3 C -2.5986 0.0 0.0 0
M  V30 4 C -1.2993 -2.2442 0.0 0
M  V30 5 C -3.8979 -0.7441 0.0 0
M  V30 6 C -2.5986 -3.0002 0.0 0
M  V30 7 C -5.1972 0.0 0.0 0
M  V30 8 C -3.8979 -2.2442 0.0 0
M  V30 9 O -5.1972 1.5001 0.0 0
M  V30 10 O -6.4966 -0.7559 0.0 0
M  V30 11 C -7.7959 -0.0118 0.0 0
M  V30 12 C -9.0952 -0.7677 0.0 0
M  V30 END ATOM
M  V30 BEGIN BOND
M  V30 1 1 1 2
M  V30 2 2 2 3
M  V30 3 1 2 4
M  V30 4 1 3 5
M  V30 5 2 4 6
M  V30 6 1 5 7
M  V30 7 2 5 8
M  V30 8 2 7 9
M  V30 9 1 7 10
M  V30 10 1 10 11
M  V30 11 1 11 12
M  V30 12 1 6 8
M  V30 END BOND
M  V30 END CTAB
M  END
>  <Molecule Name>
m-Chlorobenzoic acid, ethyl ester

>  <Activity Label>
0

>  <SMILES>
CCOC(c1cccc(Cl)c1)=O

>  <Molecular Formula>
C9H9O2Cl

>  <InChIKey>
LVFRSNCBCHABAM-UHFFFAOYSA-N

>  <Repellency>
Inactive

>  <Reference DOI>
10.3390/toxics11100837

>  <Target Organism>
Not applied

$$$$
Compound 320
Actelion Java MolfileCreator 2.0

  0  0  0  0  0  0              0 V3000
M  V30 BEGIN CTAB
M  V30 COUNTS 12 12 0 0 0
M  V30 BEGIN ATOM
M  V30 1 F 0.0 0.0 0.0 0
M  V30 2 C 0.0 -1.4998 0.0 0
M  V30 3 C -1.2991 -2.2439 0.0 0
M  V30 4 C 1.2991 -2.2557 0.0 0
M  V30 5 C -2.5982 -1.4998 0.0 0
M  V30 6 C -1.2991 -3.7438 0.0 0
M  V30 7 C 1.2991 -3.7556 0.0 0
M  V30 8 O -2.5982 0.0 0.0 0
M  V30 9 O -3.8973 -2.2557 0.0 0
M  V30 10 C 0.0 -4.4996 0.0 0
M  V30 11 C -5.1964 -1.5117 0.0 0
M  V30 12 C -6.4956 -2.2675 0.0 0
M  V30 END ATOM
M  V30 BEGIN BOND
M  V30 1 1 1 2
M  V30 2 2 2 3
M  V30 3 1 2 4
M  V30 4 1 3 5
M  V30 5 1 3 6
M  V30 6 2 4 7
M  V30 7 2 5 8
M  V30 8 1 5 9
M  V30 9 2 6 10
M  V30 10 1 9 11
M  V30 11 1 11 12
M  V30 12 1 7 10
M  V30 END BOND
M  V30 END CTAB
M  END
>  <Molecule Name>
o-Fluorobenzoic acid, ethyl ester

>  <Activity Label>
0

>  <SMILES>
CCOC(c(cccc1)c1F)=O

>  <Molecular Formula>
C9H9O2F

>  <InChIKey>
RUWPGPOBTHOLHF-UHFFFAOYSA-N

>  <Repellency>
Inactive

>  <Reference DOI>
10.3390/toxics11100837

>  <Target Organism>
Not applied

$$$$
Compound 321
Actelion Java MolfileCreator 2.0

  0  0  0  0  0  0              0 V3000
M  V30 BEGIN CTAB
M  V30 COUNTS 12 12 0 0 0
M  V30 BEGIN ATOM
M  V30 1 Br 0.0 0.0 0.0 0
M  V30 2 C 0.0 -1.4998 0.0 0
M  V30 3 C -1.2991 -2.2439 0.0 0
M  V30 4 C 1.2991 -2.2557 0.0 0
M  V30 5 C -2.5982 -1.4998 0.0 0
M  V30 6 C -1.2991 -3.7438 0.0 0
M  V30 7 C 1.2991 -3.7556 0.0 0
M  V30 8 O -2.5982 0.0 0.0 0
M  V30 9 O -3.8973 -2.2557 0.0 0
M  V30 10 C 0.0 -4.4996 0.0 0
M  V30 11 C -5.1964 -1.5117 0.0 0
M  V30 12 C -6.4956 -2.2675 0.0 0
M  V30 END ATOM
M  V30 BEGIN BOND
M  V30 1 1 1 2
M  V30 2 1 2 3
M  V30 3 1 2 4
M  V30 4 1 3 5
M  V30 5 1 3 6
M  V30 6 1 4 7
M  V30 7 2 5 8
M  V30 8 1 5 9
M  V30 9 1 6 10
M  V30 10 1 9 11
M  V30 11 1 11 12
M  V30 12 1 7 10
M  V30 END BOND
M  V30 END CTAB
M  END
>  <Molecule Name>
2-Bromocyclohexanoic acid, ethyl ester

>  <Activity Label>
0

>  <SMILES>
CCOC(C(CCCC1)C1Br)=O

>  <Molecular Formula>
C9H15O2Br

>  <InChIKey>
RLZFSEDMJRUHQF-UHFFFAOYSA-N

>  <Repellency>
Inactive

>  <Reference DOI>
10.3390/toxics11100837

>  <Target Organism>
Not applied

$$$$
Compound 322
Actelion Java MolfileCreator 2.0

  0  0  0  0  0  0              0 V3000
M  V30 BEGIN CTAB
M  V30 COUNTS 12 12 0 0 0
M  V30 BEGIN ATOM
M  V30 1 O 0.0 0.0 0.0 0
M  V30 2 C 0.0 -1.5006 0.0 0
M  V30 3 C 1.2997 -2.2568 0.0 0
M  V30 4 C -1.2997 -2.245 0.0 0
M  V30 5 C 1.2997 -3.7575 0.0 0
M  V30 6 C 2.5995 -1.5124 0.0 0
M  V30 7 C -1.2997 -3.7457 0.0 0
M  V30 8 C 0.0 -4.5019 0.0 0
M  V30 9 C 3.8993 -2.2568 0.0 0
M  V30 10 C 0.0 -6.0025 0.0 0
M  V30 11 C 3.8993 -3.7575 0.0 0
M  V30 12 C 5.199 -1.5124 0.0 0
M  V30 END ATOM
M  V30 BEGIN BOND
M  V30 1 2 1 2
M  V30 2 1 2 3
M  V30 3 1 2 4
M  V30 4 1 3 5
M  V30 5 1 3 6
M  V30 6 1 4 7
M  V30 7 1 5 8
M  V30 8 1 6 9
M  V30 9 1 8 10
M  V30 10 2 9 11
M  V30 11 1 9 12
M  V30 12 1 7 8
M  V30 END BOND
M  V30 END CTAB
M  END
>  <Molecule Name>
2-Methallyl-4-methylcyclohexanone

>  <Activity Label>
0

>  <SMILES>
CC(CC1)CC(CC(C)=C)C1=O

>  <Molecular Formula>
C11H18O

>  <InChIKey>
KKIPCTDIKLLDQX-UHFFFAOYSA-N

>  <Repellency>
Inactive

>  <Reference DOI>
10.3390/toxics11100837

>  <Target Organism>
Not applied

$$$$
Compound 323
Actelion Java MolfileCreator 2.0

  0  0  0  0  0  0              0 V3000
M  V30 BEGIN CTAB
M  V30 COUNTS 12 12 0 0 0
M  V30 BEGIN ATOM
M  V30 1 O 0.0 0.0 0.0 0
M  V30 2 C 0.0 -1.5006 0.0 0
M  V30 3 C 1.2997 -2.2568 0.0 0
M  V30 4 C -1.2997 -2.245 0.0 0
M  V30 5 C 1.2997 -3.7575 0.0 0
M  V30 6 C 2.5995 -1.5124 0.0 0
M  V30 7 C -1.2997 -3.7457 0.0 0
M  V30 8 C 0.0 -4.5019 0.0 0
M  V30 9 C 3.8993 -2.2568 0.0 0
M  V30 10 C 0.0 -6.0025 0.0 0
M  V30 11 C 3.8993 -3.7575 0.0 0
M  V30 12 C 5.199 -1.5124 0.0 0
M  V30 END ATOM
M  V30 BEGIN BOND
M  V30 1 1 1 2
M  V30 2 1 2 3
M  V30 3 1 2 4
M  V30 4 1 3 5
M  V30 5 1 3 6
M  V30 6 1 4 7
M  V30 7 1 5 8
M  V30 8 1 6 9
M  V30 9 1 8 10
M  V30 10 2 9 11
M  V30 11 1 9 12
M  V30 12 1 7 8
M  V30 END BOND
M  V30 END CTAB
M  END
>  <Molecule Name>
2-Methallyl-4-methylcyclohexanol

>  <Activity Label>
0

>  <SMILES>
CC(CC1)CC(CC(C)=C)C1O

>  <Molecular Formula>
C11H20O

>  <InChIKey>
RJWSHKYEBSYMIS-UHFFFAOYSA-N

>  <Repellency>
Inactive

>  <Reference DOI>
10.3390/toxics11100837

>  <Target Organism>
Not applied

$$$$
Compound 324
Actelion Java MolfileCreator 2.0

  0  0  0  0  0  0              0 V3000
M  V30 BEGIN CTAB
M  V30 COUNTS 12 12 0 0 0
M  V30 BEGIN ATOM
M  V30 1 O 0.0 0.0 0.0 0
M  V30 2 C 1.299 -0.7558 0.0 0
M  V30 3 C -1.299 -0.7558 0.0 0
M  V30 4 C 2.5981 -0.0118 0.0 0
M  V30 5 C -2.5981 -0.0118 0.0 0
M  V30 6 C 2.5981 1.488 0.0 0
M  V30 7 C 3.8972 -0.7558 0.0 0
M  V30 8 C -3.8972 -0.7676 0.0 0
M  V30 9 C 3.8972 2.2438 0.0 0
M  V30 10 C 1.299 2.232 0.0 0
M  V30 11 C 5.1963 0.0 0.0 0
M  V30 12 C 5.1963 1.4998 0.0 0
M  V30 END ATOM
M  V30 BEGIN BOND
M  V30 1 1 1 2
M  V30 2 1 1 3
M  V30 3 1 2 4
M  V30 4 1 3 5
M  V30 5 2 4 6
M  V30 6 1 4 7
M  V30 7 2 5 8
M  V30 8 1 6 9
M  V30 9 1 6 10
M  V30 10 2 7 11
M  V30 11 2 9 12
M  V30 12 1 11 12
M  V30 END BOND
M  V30 END CTAB
M  END
>  <Molecule Name>
Allyl 2-methylbenzyl ether

>  <Activity Label>
0

>  <SMILES>
Cc1c(COCC=C)cccc1

>  <Molecular Formula>
C11H14O

>  <InChIKey>
YEFYIMZWODTQJO-UHFFFAOYSA-N

>  <Repellency>
Inactive

>  <Reference DOI>
10.3390/toxics11100837

>  <Target Organism>
Not applied

$$$$
Compound 325
Actelion Java MolfileCreator 2.0

  0  0  0  0  0  0              0 V3000
M  V30 BEGIN CTAB
M  V30 COUNTS 12 12 0 0 0
M  V30 BEGIN ATOM
M  V30 1 O 0.0 0.0 0.0 0
M  V30 2 C 1.2999 0.7445 0.0 0
M  V30 3 C -1.2999 0.7445 0.0 0
M  V30 4 C 1.2999 2.2453 0.0 0
M  V30 5 C 2.5999 -0.0118 0.0 0
M  V30 6 C -2.5999 -0.0118 0.0 0
M  V30 7 C 2.5999 2.9898 0.0 0
M  V30 8 C 3.8998 0.7445 0.0 0
M  V30 9 C -3.8998 0.7326 0.0 0
M  V30 10 C 3.8998 2.2335 0.0 0
M  V30 11 C -5.1998 -0.0236 0.0 0
M  V30 12 C 5.1998 2.978 0.0 0
M  V30 END ATOM
M  V30 BEGIN BOND
M  V30 1 1 1 2
M  V30 2 1 1 3
M  V30 3 2 2 4
M  V30 4 1 2 5
M  V30 5 1 3 6
M  V30 6 1 4 7
M  V30 7 2 5 8
M  V30 8 1 6 9
M  V30 9 2 7 10
M  V30 10 1 9 11
M  V30 11 1 10 12
M  V30 12 1 8 10
M  V30 END BOND
M  V30 END CTAB
M  END
>  <Molecule Name>
Butyl p-tolyl ether

>  <Activity Label>
0

>  <SMILES>
CCCCOc1ccc(C)cc1

>  <Molecular Formula>
C11H16O

>  <InChIKey>
AGARRLZBNOJWLG-UHFFFAOYSA-N

>  <Repellency>
Inactive

>  <Reference DOI>
10.3390/toxics11100837

>  <Target Organism>
Not applied

$$$$
Compound 326
Actelion Java MolfileCreator 2.0

  0  0  0  0  0  0              0 V3000
M  V30 BEGIN CTAB
M  V30 COUNTS 12 12 0 0 0
M  V30 BEGIN ATOM
M  V30 1 O 0.0 0.0 0.0 0
M  V30 2 C 1.2982 -0.7553 0.0 0
M  V30 3 C -1.2982 -0.7553 0.0 0
M  V30 4 C 1.2982 -2.2542 0.0 0
M  V30 5 C 2.5964 -0.0118 0.0 0
M  V30 6 C -2.5964 -0.0118 0.0 0
M  V30 7 C 2.5964 -3.0095 0.0 0
M  V30 8 C 3.8947 -0.7553 0.0 0
M  V30 9 C -3.8947 -0.7671 0.0 0
M  V30 10 C 3.8947 -2.266 0.0 0
M  V30 11 C -5.1929 -0.0236 0.0 0
M  V30 12 C -6.4912 -0.7789 0.0 0
M  V30 END ATOM
M  V30 BEGIN BOND
M  V30 1 1 1 2
M  V30 2 1 1 3
M  V30 3 2 2 4
M  V30 4 1 2 5
M  V30 5 1 3 6
M  V30 6 1 4 7
M  V30 7 2 5 8
M  V30 8 1 6 9
M  V30 9 2 7 10
M  V30 10 1 9 11
M  V30 11 1 11 12
M  V30 12 1 8 10
M  V30 END BOND
M  V30 END CTAB
M  END
>  <Molecule Name>
Amyl phenyl ether

>  <Activity Label>
0

>  <SMILES>
CCCCCOc1ccccc1

>  <Molecular Formula>
C11H16O

>  <InChIKey>
HPUOAJPGWQQRNT-UHFFFAOYSA-N

>  <Repellency>
Inactive

>  <Reference DOI>
10.3390/toxics11100837

>  <Target Organism>
Not applied

$$$$
Compound 327
Actelion Java MolfileCreator 2.0

  0  0  0  0  0  0              0 V3000
M  V30 BEGIN CTAB
M  V30 COUNTS 12 12 0 0 0
M  V30 BEGIN ATOM
M  V30 1 O 0.0 0.0 0.0 0
M  V30 2 C -1.298 -0.7552 0.0 0
M  V30 3 C 1.298 -0.7552 0.0 0
M  V30 4 C -1.298 -2.2538 0.0 0
M  V30 5 C -2.596 0.0 0.0 0
M  V30 6 C -2.596 -2.9973 0.0 0
M  V30 7 C 0.0 -3.0091 0.0 0
M  V30 8 C -3.8941 -0.7434 0.0 0
M  V30 9 C -3.8941 -2.2538 0.0 0
M  V30 10 C -5.1921 0.0118 0.0 0
M  V30 11 C -5.1921 1.5104 0.0 0
M  V30 12 C -6.4902 -0.7316 0.0 0
M  V30 END ATOM
M  V30 BEGIN BOND
M  V30 1 1 1 2
M  V30 2 1 1 3
M  V30 3 2 2 4
M  V30 4 1 2 5
M  V30 5 1 4 6
M  V30 6 1 4 7
M  V30 7 2 5 8
M  V30 8 2 6 9
M  V30 9 1 8 10
M  V30 10 1 10 11
M  V30 11 1 10 12
M  V30 12 1 8 9
M  V30 END BOND
M  V30 END CTAB
M  END
>  <Molecule Name>
Carvacryl methyl ether

>  <Activity Label>
0

>  <SMILES>
CC(C)c1cc(OC)c(C)cc1

>  <Molecular Formula>
C11H16O

>  <InChIKey>
YVLHTQPPMZOCOW-UHFFFAOYSA-N

>  <Repellency>
Inactive

>  <Reference DOI>
10.3390/toxics11100837

>  <Target Organism>
Not applied

$$$$
Compound 328
Actelion Java MolfileCreator 2.0

  0  0  0  0  0  0              0 V3000
M  V30 BEGIN CTAB
M  V30 COUNTS 12 12 0 0 0
M  V30 BEGIN ATOM
M  V30 1 O 0.0 0.0 0.0 0
M  V30 2 C 0.0 1.4998 0.0 0
M  V30 3 C -1.2991 2.2439 0.0 0
M  V30 4 C 1.2991 2.2439 0.0 0
M  V30 5 C -1.2991 3.7438 0.0 0
M  V30 6 C -2.5982 1.488 0.0 0
M  V30 7 C 2.5982 1.488 0.0 0
M  V30 8 C 2.5982 -0.0118 0.0 0
M  V30 9 C 3.8973 2.2321 0.0 0
M  V30 10 C 3.8973 -0.7676 0.0 0
M  V30 11 C 5.1964 1.4762 0.0 0
M  V30 12 C 5.1964 -0.0236 0.0 0
M  V30 END ATOM
M  V30 BEGIN BOND
M  V30 1 2 1 2
M  V30 2 1 2 3
M  V30 3 1 2 4
M  V30 4 1 3 5
M  V30 5 1 3 6
M  V30 6 1 4 7
M  V30 7 2 7 8
M  V30 8 1 7 9
M  V30 9 1 8 10
M  V30 10 2 9 11
M  V30 11 2 10 12
M  V30 12 1 11 12
M  V30 END BOND
M  V30 END CTAB
M  END
>  <Molecule Name>
iso-Propyl benzyl ketone

>  <Activity Label>
0

>  <SMILES>
CC(C)C(Cc1ccccc1)=O

>  <Molecular Formula>
C11H14O

>  <InChIKey>
ZATIMOAGKJEVGN-UHFFFAOYSA-N

>  <Repellency>
Inactive

>  <Reference DOI>
10.3390/toxics11100837

>  <Target Organism>
Not applied

$$$$
Compound 329
Actelion Java MolfileCreator 2.0

  0  0  0  0  0  0              0 V3000
M  V30 BEGIN CTAB
M  V30 COUNTS 12 12 0 0 0
M  V30 BEGIN ATOM
M  V30 1 O 0.0 0.0 0.0 0
M  V30 2 C 1.301 -0.7451 0.0 0
M  V30 3 C -1.301 -0.7451 0.0 0
M  V30 4 C 2.602 0.0 0.0 0
M  V30 5 C -2.602 0.0 0.0 0
M  V30 6 C 3.903 -0.7451 0.0 0
M  V30 7 C 2.602 1.502 0.0 0
M  V30 8 C -3.903 -0.7451 0.0 0
M  V30 9 C -2.602 1.502 0.0 0
M  V30 10 C 5.2041 0.0 0.0 0
M  V30 11 C 3.903 2.2472 0.0 0
M  V30 12 C 5.2041 1.502 0.0 0
M  V30 END ATOM
M  V30 BEGIN BOND
M  V30 1 1 1 2
M  V30 2 1 1 3
M  V30 3 1 2 4
M  V30 4 1 3 5
M  V30 5 2 4 6
M  V30 6 1 4 7
M  V30 7 2 5 8
M  V30 8 1 5 9
M  V30 9 1 6 10
M  V30 10 2 7 11
M  V30 11 2 10 12
M  V30 12 1 11 12
M  V30 END BOND
M  V30 END CTAB
M  END
>  <Molecule Name>
Methallyl benzyl ether

>  <Activity Label>
0

>  <SMILES>
CC(COCc1ccccc1)=C

>  <Molecular Formula>
C11H14O

>  <InChIKey>
CYZYBHBEBHVRMJ-UHFFFAOYSA-N

>  <Repellency>
Inactive

>  <Reference DOI>
10.3390/toxics11100837

>  <Target Organism>
Not applied

$$$$
Compound 330
Actelion Java MolfileCreator 2.0

  0  0  0  0  0  0              0 V3000
M  V30 BEGIN CTAB
M  V30 COUNTS 12 12 0 0 0
M  V30 BEGIN ATOM
M  V30 1 O 0.0 0.0 0.0 0
M  V30 2 C 1.301 -0.7451 0.0 0
M  V30 3 C -1.301 -0.7451 0.0 0
M  V30 4 C 2.602 0.0 0.0 0
M  V30 5 C -2.602 0.0 0.0 0
M  V30 6 C 3.903 -0.7451 0.0 0
M  V30 7 C 2.602 1.502 0.0 0
M  V30 8 C -2.602 1.502 0.0 0
M  V30 9 C -3.903 -0.7451 0.0 0
M  V30 10 C 5.2041 0.0 0.0 0
M  V30 11 C 3.903 2.2472 0.0 0
M  V30 12 C 5.2041 1.502 0.0 0
M  V30 END ATOM
M  V30 BEGIN BOND
M  V30 1 1 1 2
M  V30 2 1 1 3
M  V30 3 1 2 4
M  V30 4 1 3 5
M  V30 5 2 4 6
M  V30 6 1 4 7
M  V30 7 1 5 8
M  V30 8 1 5 9
M  V30 9 1 6 10
M  V30 10 2 7 11
M  V30 11 2 10 12
M  V30 12 1 11 12
M  V30 END BOND
M  V30 END CTAB
M  END
>  <Molecule Name>
iso-Butyl benzyl ether

>  <Activity Label>
0

>  <SMILES>
CC(C)COCc1ccccc1

>  <Molecular Formula>
C11H16O

>  <InChIKey>
ADHMUPZYLITZIH-UHFFFAOYSA-N

>  <Repellency>
Inactive

>  <Reference DOI>
10.3390/toxics11100837

>  <Target Organism>
Not applied

$$$$
Compound 331
Actelion Java MolfileCreator 2.0

  0  0  0  0  0  0              0 V3000
M  V30 BEGIN CTAB
M  V30 COUNTS 12 12 0 0 0
M  V30 BEGIN ATOM
M  V30 1 Br 0.0 0.0 0.0 0
M  V30 2 C 1.3016 0.7454 0.0 0
M  V30 3 C 1.3016 2.2483 0.0 0
M  V30 4 C 2.6033 0.0 0.0 0
M  V30 5 C 2.6033 2.9938 0.0 0
M  V30 6 C 3.9049 0.7454 0.0 0
M  V30 7 C 3.9049 2.2364 0.0 0
M  V30 8 O 5.2066 2.9819 0.0 0
M  V30 9 C 6.5082 2.2364 0.0 0
M  V30 10 C 7.8099 2.9819 0.0 0
M  V30 11 C 9.1116 2.2364 0.0 0
M  V30 12 C 10.4132 2.9819 0.0 0
M  V30 END ATOM
M  V30 BEGIN BOND
M  V30 1 1 1 2
M  V30 2 2 2 3
M  V30 3 1 2 4
M  V30 4 1 3 5
M  V30 5 2 4 6
M  V30 6 2 5 7
M  V30 7 1 7 8
M  V30 8 1 8 9
M  V30 9 1 9 10
M  V30 10 1 10 11
M  V30 11 1 11 12
M  V30 12 1 6 7
M  V30 END BOND
M  V30 END CTAB
M  END
>  <Molecule Name>
p-Butoxyphenylbromide

>  <Activity Label>
0

>  <SMILES>
CCCCOc(cc1)ccc1Br

>  <Molecular Formula>
C10H13OBr

>  <InChIKey>
BOUVKHWPQNEXTO-UHFFFAOYSA-N

>  <Repellency>
Inactive

>  <Reference DOI>
10.3390/toxics11100837

>  <Target Organism>
Not applied

$$$$
Compound 332
Actelion Java MolfileCreator 2.0

  0  0  0  0  0  0              0 V3000
M  V30 BEGIN CTAB
M  V30 COUNTS 12 12 0 0 0
M  V30 BEGIN ATOM
M  V30 1 Br 0.0 0.0 0.0 0
M  V30 2 C 1.3014 0.7453 0.0 0
M  V30 3 C 1.3014 2.2479 0.0 0
M  V30 4 C 2.6029 0.0 0.0 0
M  V30 5 C 2.6029 2.9933 0.0 0
M  V30 6 C 3.9043 0.7453 0.0 0
M  V30 7 C 3.9043 2.2361 0.0 0
M  V30 8 O 5.2058 2.9815 0.0 0
M  V30 9 C 6.5072 2.2361 0.0 0 CFG=2
M  V30 10 C 7.8087 2.9815 0.0 0
M  V30 11 C 6.5072 0.7335 0.0 0
M  V30 12 C 9.1101 2.2361 0.0 0
M  V30 END ATOM
M  V30 BEGIN BOND
M  V30 1 1 1 2
M  V30 2 2 2 3
M  V30 3 1 2 4
M  V30 4 1 3 5
M  V30 5 2 4 6
M  V30 6 2 5 7
M  V30 7 1 7 8
M  V30 8 1 8 9
M  V30 9 1 9 10
M  V30 10 1 9 11 CFG=3
M  V30 11 1 10 12
M  V30 12 1 6 7
M  V30 END BOND
M  V30 BEGIN COLLECTION
M  V30 MDLV30/STERAC1 ATOMS=(1 9)
M  V30 END COLLECTION
M  V30 END CTAB
M  END
>  <Molecule Name>
p-sec-Butoxyphenylbromide

>  <Activity Label>
0

>  <SMILES>
CCC(C)Oc(cc1)ccc1Br

>  <Molecular Formula>
C10H13OBr

>  <InChIKey>
WRGSCINCRHLIPC-UHFFFAOYSA-N

>  <Repellency>
Inactive

>  <Reference DOI>
10.3390/toxics11100837

>  <Target Organism>
Not applied

$$$$
Compound 333
Actelion Java MolfileCreator 2.0

  0  0  0  0  0  0              0 V3000
M  V30 BEGIN CTAB
M  V30 COUNTS 12 12 0 0 0
M  V30 BEGIN ATOM
M  V30 1 O 0.0 0.0 0.0 0
M  V30 2 C 0.0 -1.5001 0.0 0
M  V30 3 O -1.2993 -2.2562 0.0 0
M  V30 4 C 1.2993 -2.2562 0.0 0
M  V30 5 C -2.5987 -1.512 0.0 0
M  V30 6 C 2.5987 -1.512 0.0 0
M  V30 7 C 1.2993 -3.7563 0.0 0
M  V30 8 C -3.8981 -2.268 0.0 0 CFG=2
M  V30 9 O -4.0517 -3.7563 0.0 0
M  V30 10 C -5.2684 -1.6537 0.0 0
M  V30 11 C -5.5164 -4.0635 0.0 0
M  V30 12 C -6.2724 -2.7641 0.0 0
M  V30 END ATOM
M  V30 BEGIN BOND
M  V30 1 2 1 2
M  V30 2 1 2 3
M  V30 3 1 2 4
M  V30 4 1 3 5
M  V30 5 2 4 6
M  V30 6 1 4 7
M  V30 7 1 8 5 CFG=3
M  V30 8 1 8 9
M  V30 9 1 8 10
M  V30 10 1 9 11
M  V30 11 1 10 12
M  V30 12 1 11 12
M  V30 END BOND
M  V30 BEGIN COLLECTION
M  V30 MDLV30/STERAC1 ATOMS=(1 8)
M  V30 END COLLECTION
M  V30 END CTAB
M  END
>  <Molecule Name>
Methacrylic acid, tetrahydrofurfuryl ester

>  <Activity Label>
0

>  <SMILES>
CC(C(OCC1OCCC1)=O)=C

>  <Molecular Formula>
C9H14O3

>  <InChIKey>
LCXXNKZQVOXMEH-UHFFFAOYSA-N

>  <Repellency>
Inactive

>  <Reference DOI>
10.3390/toxics11100837

>  <Target Organism>
Not applied

$$$$
Compound 334
Actelion Java MolfileCreator 2.0

  0  0  0  0  0  0              0 V3000
M  V30 BEGIN CTAB
M  V30 COUNTS 12 12 0 0 0
M  V30 BEGIN ATOM
M  V30 1 O 0.0 0.0 0.0 0
M  V30 2 C 0.0 -1.4996 0.0 0
M  V30 3 O -1.2988 -2.2553 0.0 0
M  V30 4 C 1.2988 -2.2553 0.0 0
M  V30 5 C -2.5977 -1.5114 0.0 0
M  V30 6 C 1.2988 -3.7549 0.0 0
M  V30 7 C 2.5977 -1.5114 0.0 0
M  V30 8 C -3.8966 -2.2671 0.0 0
M  V30 9 O 0.0 -4.4989 0.0 0
M  V30 10 C 2.5977 -4.5107 0.0 0
M  V30 11 C 3.8966 -2.2671 0.0 0
M  V30 12 C 3.8966 -3.7667 0.0 0
M  V30 END ATOM
M  V30 BEGIN BOND
M  V30 1 2 1 2
M  V30 2 1 2 3
M  V30 3 1 2 4
M  V30 4 1 3 5
M  V30 5 2 4 6
M  V30 6 1 4 7
M  V30 7 1 5 8
M  V30 8 1 6 9
M  V30 9 1 6 10
M  V30 10 2 7 11
M  V30 11 2 10 12
M  V30 12 1 11 12
M  V30 END BOND
M  V30 END CTAB
M  END
>  <Molecule Name>
Salicylic acid, ethyl ester

>  <Activity Label>
0

>  <SMILES>
CCOC(c(cccc1)c1O)=O

>  <Molecular Formula>
C9H10O3

>  <InChIKey>
GYCKQBWUSACYIF-UHFFFAOYSA-N

>  <Repellency>
Inactive

>  <Reference DOI>
10.3390/toxics11100837

>  <Target Organism>
Not applied

$$$$
Compound 335
Actelion Java MolfileCreator 2.0

  0  0  0  0  0  0              0 V3000
M  V30 BEGIN CTAB
M  V30 COUNTS 12 12 0 0 0
M  V30 BEGIN ATOM
M  V30 1 O 0.0 0.0 0.0 0
M  V30 2 C -1.2993 -0.7559 0.0 0
M  V30 3 O -2.5986 0.0 0.0 0
M  V30 4 C -1.2993 -2.256 0.0 0
M  V30 5 C 0.0 -3.012 0.0 0
M  V30 6 C -2.5986 -3.0002 0.0 0
M  V30 7 O 1.2993 -2.2679 0.0 0
M  V30 8 C 0.0 -4.5121 0.0 0
M  V30 9 C -2.5986 -4.5003 0.0 0
M  V30 10 C 2.5986 -3.012 0.0 0
M  V30 11 C -1.2993 -5.2563 0.0 0
M  V30 12 C 3.8979 -2.2679 0.0 0
M  V30 END ATOM
M  V30 BEGIN BOND
M  V30 1 2 1 2
M  V30 2 1 2 3
M  V30 3 1 2 4
M  V30 4 2 4 5
M  V30 5 1 4 6
M  V30 6 1 5 7
M  V30 7 1 5 8
M  V30 8 2 6 9
M  V30 9 1 7 10
M  V30 10 2 8 11
M  V30 11 1 10 12
M  V30 12 1 9 11
M  V30 END BOND
M  V30 END CTAB
M  END
>  <Molecule Name>
o-Ethoxybenzoic acid

>  <Activity Label>
0

>  <SMILES>
CCOc(cccc1)c1C(O)=O

>  <Molecular Formula>
C9H10O3

>  <InChIKey>
XDZMPRGFOOFSBL-UHFFFAOYSA-N

>  <Repellency>
Inactive

>  <Reference DOI>
10.3390/toxics11100837

>  <Target Organism>
Not applied

$$$$
Compound 336
Actelion Java MolfileCreator 2.0

  0  0  0  0  0  0              0 V3000
M  V30 BEGIN CTAB
M  V30 COUNTS 12 12 0 0 0
M  V30 BEGIN ATOM
M  V30 1 O 0.0 0.0 0.0 0
M  V30 2 C 1.3766 0.8782 0.0 0
M  V30 3 O 2.6821 0.1305 0.0 0
M  V30 4 C 1.3766 2.3854 0.0 0 CFG=1
M  V30 5 C 3.9875 0.89 0.0 0
M  V30 6 O 0.6289 3.6908 0.0 0
M  V30 7 C -0.083 1.9937 0.0 0
M  V30 8 C 2.1361 3.6908 0.0 0
M  V30 9 C 5.293 0.1424 0.0 0
M  V30 10 C 0.178 0.7357 0.0 0
M  V30 11 C -1.5428 1.6021 0.0 0
M  V30 12 C -0.4747 3.4535 0.0 0
M  V30 END ATOM
M  V30 BEGIN BOND
M  V30 1 2 1 2
M  V30 2 1 2 3
M  V30 3 1 4 2 CFG=3
M  V30 4 1 3 5
M  V30 5 1 4 6
M  V30 6 1 4 7
M  V30 7 1 4 8
M  V30 8 1 5 9
M  V30 9 1 7 10
M  V30 10 1 7 11
M  V30 11 1 7 12
M  V30 12 1 6 8
M  V30 END BOND
M  V30 BEGIN COLLECTION
M  V30 MDLV30/STERAC1 ATOMS=(1 4)
M  V30 END COLLECTION
M  V30 END CTAB
M  END
>  <Molecule Name>
beta-Methyl-beta-propyl-glycidic acid, ethyl ester

>  <Activity Label>
0

>  <SMILES>
CCOC(C1(C(C)(C)C)OC1)=O

>  <Molecular Formula>
C9H16O3

>  <InChIKey>
INUQMWXMSGRFGB-UHFFFAOYSA-N

>  <Repellency>
Inactive

>  <Reference DOI>
10.3390/toxics11100837

>  <Target Organism>
Not applied

$$$$
Compound 337
Actelion Java MolfileCreator 2.0

  0  0  0  0  0  0              0 V3000
M  V30 BEGIN CTAB
M  V30 COUNTS 12 12 0 0 0
M  V30 BEGIN ATOM
M  V30 1 N 0.0 0.0 0.0 0
M  V30 2 C 0.0 1.4998 0.0 0
M  V30 3 C 0.0 2.9997 0.0 0
M  V30 4 C 1.2991 3.7438 0.0 0
M  V30 5 C 2.5982 2.9879 0.0 0
M  V30 6 C 3.8973 3.732 0.0 0
M  V30 7 C 5.1964 2.9761 0.0 0
M  V30 8 C 5.1964 1.4762 0.0 0
M  V30 9 C 6.4956 3.7202 0.0 0
M  V30 10 C 6.4956 0.7204 0.0 0
M  V30 11 C 7.7947 2.9643 0.0 0
M  V30 12 C 7.7947 1.4644 0.0 0
M  V30 END ATOM
M  V30 BEGIN BOND
M  V30 1 3 1 2
M  V30 2 1 2 3
M  V30 3 1 3 4
M  V30 4 1 4 5
M  V30 5 2 5 6 CFG=2
M  V30 6 1 6 7
M  V30 7 2 7 8
M  V30 8 1 7 9
M  V30 9 1 8 10
M  V30 10 1 9 11
M  V30 11 1 10 12
M  V30 12 1 11 12
M  V30 END BOND
M  V30 END CTAB
M  END
>  <Molecule Name>
(1-Cyclohexenyl)allyl- acetonitrile

>  <Activity Label>
0

>  <SMILES>
N#CCCC=CC1=CCCCC1

>  <Molecular Formula>
C11H15N

>  <InChIKey>
SUZPVTSNCWAJDU-UHFFFAOYSA-N

>  <Repellency>
Inactive

>  <Reference DOI>
10.3390/toxics11100837

>  <Target Organism>
Not applied

$$$$
Compound 338
Actelion Java MolfileCreator 2.0

  0  0  0  0  0  0              0 V3000
M  V30 BEGIN CTAB
M  V30 COUNTS 12 12 0 0 0
M  V30 BEGIN ATOM
M  V30 1 N 0.0 0.0 0.0 0
M  V30 2 C 1.2993 -0.7559 0.0 0
M  V30 3 C 2.5986 -1.5119 0.0 0
M  V30 4 C 2.5986 -3.012 0.0 0
M  V30 5 C 3.8979 -3.768 0.0 0 CFG=2
M  V30 6 C 1.2993 -3.7562 0.0 0
M  V30 7 C 3.8979 -5.2681 0.0 0
M  V30 8 C 5.1972 -3.0238 0.0 0
M  V30 9 C 1.2993 -5.2563 0.0 0
M  V30 10 C 2.5986 -6.0123 0.0 0
M  V30 11 C 6.4966 -3.768 0.0 0
M  V30 12 C 7.7959 -3.0238 0.0 0
M  V30 END ATOM
M  V30 BEGIN BOND
M  V30 1 3 1 2
M  V30 2 1 2 3
M  V30 3 2 3 4 CFG=2
M  V30 4 1 4 5
M  V30 5 1 4 6
M  V30 6 1 5 7
M  V30 7 1 5 8 CFG=1
M  V30 8 1 6 9
M  V30 9 1 7 10
M  V30 10 1 8 11
M  V30 11 2 11 12
M  V30 12 1 9 10
M  V30 END BOND
M  V30 BEGIN COLLECTION
M  V30 MDLV30/STERAC1 ATOMS=(1 5)
M  V30 END COLLECTION
M  V30 END CTAB
M  END
>  <Molecule Name>
(2-Allylcyclohexylidene)acetonitrile

>  <Activity Label>
0

>  <SMILES>
C=CCC(CCCC1)C1=CC#N

>  <Molecular Formula>
C11H15N

>  <InChIKey>
OJQRLEOJQGRQMX-UHFFFAOYSA-N

>  <Repellency>
Inactive

>  <Reference DOI>
10.3390/toxics11100837

>  <Target Organism>
Not applied

$$$$
Compound 339
Actelion Java MolfileCreator 2.0

  0  0  0  0  0  0              0 V3000
M  V30 BEGIN CTAB
M  V30 COUNTS 12 12 0 0 0
M  V30 BEGIN ATOM
M  V30 1 O 0.0 0.0 0.0 0
M  V30 2 N 1.2988 0.7439 0.0 0
M  V30 3 C 2.5977 -0.0118 0.0 0
M  V30 4 C 3.8966 0.7321 0.0 0
M  V30 5 C 3.8966 2.2317 0.0 0
M  V30 6 C 5.1955 -0.0236 0.0 0
M  V30 7 C 5.1955 2.9756 0.0 0
M  V30 8 C 2.5977 2.9756 0.0 0
M  V30 9 C 6.4944 0.7202 0.0 0
M  V30 10 C 5.1955 -1.5232 0.0 0
M  V30 11 C 6.4944 2.2317 0.0 0
M  V30 12 C 7.7933 2.9874 0.0 0
M  V30 END ATOM
M  V30 BEGIN BOND
M  V30 1 1 1 2
M  V30 2 2 2 3 CFG=2
M  V30 3 1 3 4
M  V30 4 1 4 5
M  V30 5 1 4 6
M  V30 6 1 5 7
M  V30 7 1 5 8
M  V30 8 1 6 9
M  V30 9 1 6 10
M  V30 10 2 7 11
M  V30 11 1 11 12
M  V30 12 1 9 11
M  V30 END BOND
M  V30 END CTAB
M  END
>  <Molecule Name>
2,4,6-Trimethyl-1,2,5,6-tetrahydrobenzaldehyde oxime

>  <Activity Label>
0

>  <SMILES>
CC(CC(C)=CC1C)C1C=NO

>  <Molecular Formula>
C10H17NO

>  <InChIKey>
FWRLPSXGBMUNQR-UHFFFAOYSA-N

>  <Repellency>
Inactive

>  <Reference DOI>
10.3390/toxics11100837

>  <Target Organism>
Not applied

$$$$
Compound 340
Actelion Java MolfileCreator 2.0

  0  0  0  0  0  0              0 V3000
M  V30 BEGIN CTAB
M  V30 COUNTS 12 12 0 0 0
M  V30 BEGIN ATOM
M  V30 1 O 0.0 0.0 0.0 0
M  V30 2 C 0.0 1.5001 0.0 0
M  V30 3 C -1.2993 -0.7559 0.0 0
M  V30 4 C -1.2993 2.2442 0.0 0
M  V30 5 C 1.2993 2.2442 0.0 0
M  V30 6 C -2.5986 0.0 0.0 0
M  V30 7 C -1.2993 -2.256 0.0 0
M  V30 8 N -2.5986 1.5001 0.0 0
M  V30 9 C -3.8979 2.2442 0.0 0
M  V30 10 C -5.1972 1.4883 0.0 0
M  V30 11 C -6.4966 2.2324 0.0 0
M  V30 12 C -7.7959 1.4765 0.0 0
M  V30 END ATOM
M  V30 BEGIN BOND
M  V30 1 1 1 2
M  V30 2 1 1 3
M  V30 3 1 2 4
M  V30 4 1 2 5
M  V30 5 1 3 6
M  V30 6 1 3 7
M  V30 7 1 4 8
M  V30 8 1 8 9
M  V30 9 1 9 10
M  V30 10 1 10 11
M  V30 11 1 11 12
M  V30 12 1 6 8
M  V30 END BOND
M  V30 END CTAB
M  END
>  <Molecule Name>
2,6-Dimethyl-4-butylmorpholine

>  <Activity Label>
0

>  <SMILES>
CCCCN1CC(C)OC(C)C1

>  <Molecular Formula>
C10H21NO

>  <InChIKey>
MZOOYGRZWKJUFA-UHFFFAOYSA-N

>  <Repellency>
Inactive

>  <Reference DOI>
10.3390/toxics11100837

>  <Target Organism>
Not applied

$$$$
Compound 341
Actelion Java MolfileCreator 2.0

  0  0  0  0  0  0              0 V3000
M  V30 BEGIN CTAB
M  V30 COUNTS 12 13 0 0 0
M  V30 BEGIN ATOM
M  V30 1 C 0.0 0.0 0.0 0
M  V30 2 C -1.2993 -0.7441 0.0 0
M  V30 3 C 1.2993 -0.7559 0.0 0
M  V30 4 C 0.0 1.5001 0.0 0
M  V30 5 C -2.5986 0.0118 0.0 0
M  V30 6 C -1.2993 -2.2442 0.0 0
M  V30 7 C 2.5986 -0.0118 0.0 0
M  V30 8 C 1.2993 2.2442 0.0 0
M  V30 9 C -3.8979 -0.7323 0.0 0
M  V30 10 C -2.5986 -2.9884 0.0 0
M  V30 11 C 2.5986 1.4883 0.0 0
M  V30 12 C -3.8979 -2.2324 0.0 0
M  V30 END ATOM
M  V30 BEGIN BOND
M  V30 1 1 1 2
M  V30 2 2 1 3
M  V30 3 1 1 4
M  V30 4 2 2 5
M  V30 5 1 2 6
M  V30 6 1 3 7
M  V30 7 2 4 8
M  V30 8 1 5 9
M  V30 9 1 6 10
M  V30 10 2 7 11
M  V30 11 1 9 12
M  V30 12 1 8 11
M  V30 13 1 10 12
M  V30 END BOND
M  V30 END CTAB
M  END
>  <Molecule Name>
1-Phenylcyclohexene

>  <Activity Label>
0

>  <SMILES>
C(CC1)CC=C1c1ccccc1

>  <Molecular Formula>
C12H14

>  <InChIKey>
WCMSFBRREKZZFL-UHFFFAOYSA-N

>  <Repellency>
Inactive

>  <Reference DOI>
10.3390/toxics11100837

>  <Target Organism>
Not applied

$$$$
Compound 342
Actelion Java MolfileCreator 2.0

  0  0  0  0  0  0              0 V3000
M  V30 BEGIN CTAB
M  V30 COUNTS 12 13 0 0 0
M  V30 BEGIN ATOM
M  V30 1 C 0.0 0.0 0.0 0
M  V30 2 C -1.3001 -0.7446 0.0 0
M  V30 3 C 1.3001 -0.7446 0.0 0
M  V30 4 C 0.0 1.501 0.0 0
M  V30 5 C -2.6002 0.0 0.0 0
M  V30 6 C -1.3001 -2.2456 0.0 0
M  V30 7 C 2.6002 0.0 0.0 0
M  V30 8 C 1.3001 2.2574 0.0 0
M  V30 9 C -3.9003 -0.7446 0.0 0
M  V30 10 C -2.6002 -2.9902 0.0 0
M  V30 11 C 2.6002 1.501 0.0 0
M  V30 12 C -3.9003 -2.2456 0.0 0
M  V30 END ATOM
M  V30 BEGIN BOND
M  V30 1 1 1 2
M  V30 2 1 1 3
M  V30 3 1 1 4
M  V30 4 1 2 5
M  V30 5 1 2 6
M  V30 6 1 3 7
M  V30 7 1 4 8
M  V30 8 1 5 9
M  V30 9 1 6 10
M  V30 10 1 7 11
M  V30 11 1 9 12
M  V30 12 1 8 11
M  V30 13 1 10 12
M  V30 END BOND
M  V30 END CTAB
M  END
>  <Molecule Name>
Dicyclohexyl

>  <Activity Label>
0

>  <SMILES>
C(CC1)CCC1C1CCCCC1

>  <Molecular Formula>
C12H22

>  <InChIKey>
WVIIMZNLDWSIRH-UHFFFAOYSA-N

>  <Repellency>
Inactive

>  <Reference DOI>
10.3390/toxics11100837

>  <Target Organism>
Not applied

$$$$
Compound 343
Actelion Java MolfileCreator 2.0

  0  0  0  0  0  0              0 V3000
M  V30 BEGIN CTAB
M  V30 COUNTS 12 13 0 0 0
M  V30 BEGIN ATOM
M  V30 1 O 0.0 0.0 0.0 0
M  V30 2 C -0.3069 -1.464 0.0 0
M  V30 3 C 1.4876 0.1534 0.0 0
M  V30 4 C 0.9917 -2.2197 0.0 0
M  V30 5 C -1.6057 -2.2197 0.0 0
M  V30 6 O 2.1016 -1.2161 0.0 0
M  V30 7 C 0.9917 -3.7192 0.0 0
M  V30 8 C -1.6057 -3.7192 0.0 0
M  V30 9 C -0.3069 -4.4748 0.0 0
M  V30 10 C -2.9045 -4.4748 0.0 0
M  V30 11 C -4.2032 -3.731 0.0 0
M  V30 12 C -5.502 -4.4866 0.0 0
M  V30 END ATOM
M  V30 BEGIN BOND
M  V30 1 1 1 2
M  V30 2 1 1 3
M  V30 3 2 2 4
M  V30 4 1 2 5
M  V30 5 1 3 6
M  V30 6 1 4 7
M  V30 7 2 5 8
M  V30 8 2 7 9
M  V30 9 1 8 10
M  V30 10 1 10 11
M  V30 11 2 11 12
M  V30 12 1 4 6
M  V30 13 1 8 9
M  V30 END BOND
M  V30 END CTAB
M  END
>  <Molecule Name>
Safrole

>  <Activity Label>
0

>  <SMILES>
C=CCc(cc1)cc2c1OCO2

>  <Molecular Formula>
C10H10O2

>  <InChIKey>
ZMQAAUBTXCXRIC-UHFFFAOYSA-N

>  <Repellency>
Inactive

>  <Reference DOI>
10.3390/toxics11100837

>  <Target Organism>
Not applied

$$$$
Compound 344
Actelion Java MolfileCreator 2.0

  0  0  0  0  0  0              0 V3000
M  V30 BEGIN CTAB
M  V30 COUNTS 12 13 0 0 0
M  V30 BEGIN ATOM
M  V30 1 O 0.0 0.0 0.0 0
M  V30 2 C -1.1098 -1.0036 0.0 0
M  V30 3 C -0.6139 1.3696 0.0 0
M  V30 4 C -1.1098 -2.5031 0.0 0
M  V30 5 C -2.4086 -0.2597 0.0 0 CFG=1
M  V30 6 O -2.1016 1.2161 0.0 0
M  V30 7 C -2.4086 -3.2587 0.0 0
M  V30 8 C -3.7074 -1.0154 0.0 0
M  V30 9 C -3.7074 -2.5149 0.0 0
M  V30 10 C -5.0062 -3.2705 0.0 0
M  V30 11 C -6.305 -2.5267 0.0 0
M  V30 12 C -7.6037 -3.2823 0.0 0
M  V30 END ATOM
M  V30 BEGIN BOND
M  V30 1 1 1 2
M  V30 2 1 1 3
M  V30 3 2 2 4
M  V30 4 1 2 5
M  V30 5 1 3 6
M  V30 6 1 4 7
M  V30 7 1 5 8
M  V30 8 2 7 9
M  V30 9 1 9 10
M  V30 10 1 10 11
M  V30 11 2 11 12
M  V30 12 1 5 6 CFG=3
M  V30 13 1 8 9
M  V30 END BOND
M  V30 BEGIN COLLECTION
M  V30 MDLV30/STERAC1 ATOMS=(1 5)
M  V30 END COLLECTION
M  V30 END CTAB
M  END
>  <Molecule Name>
Dihydrosafrole

>  <Activity Label>
0

>  <SMILES>
C=CCC1=CC=C2OCOC2C1

>  <Molecular Formula>
C10H12O2

>  <InChIKey>
NRSXSFHVWXSMOO-UHFFFAOYSA-N

>  <Repellency>
Inactive

>  <Reference DOI>
10.3390/toxics11100837

>  <Target Organism>
Not applied

$$$$
Compound 345
Actelion Java MolfileCreator 2.0

  0  0  0  0  0  0              0 V3000
M  V30 BEGIN CTAB
M  V30 COUNTS 12 11 0 0 0
M  V30 BEGIN ATOM
M  V30 1 Br 0.0 0.0 0.0 0
M  V30 2 C 1.3004 0.7475 0.0 0
M  V30 3 C 2.6009 0.0 0.0 0
M  V30 4 C 3.9014 0.7475 0.0 0
M  V30 5 C 5.2018 0.0 0.0 0
M  V30 6 C 6.5023 0.7475 0.0 0
M  V30 7 C 7.8028 0.0 0.0 0
M  V30 8 C 9.1032 0.7475 0.0 0
M  V30 9 C 10.4037 0.0 0.0 0
M  V30 10 C 11.7042 0.7475 0.0 0
M  V30 11 C 13.0047 0.0 0.0 0
M  V30 12 Br 14.3051 0.7475 0.0 0
M  V30 END ATOM
M  V30 BEGIN BOND
M  V30 1 1 1 2
M  V30 2 1 2 3
M  V30 3 1 3 4
M  V30 4 1 4 5
M  V30 5 1 5 6
M  V30 6 1 6 7
M  V30 7 1 7 8
M  V30 8 1 8 9
M  V30 9 1 9 10
M  V30 10 1 10 11
M  V30 11 1 11 12
M  V30 END BOND
M  V30 END CTAB
M  END
>  <Molecule Name>
Decamethylene bromide

>  <Activity Label>
0

>  <SMILES>
BrCCCCCCCCCCBr

>  <Molecular Formula>
C10H20Br2

>  <InChIKey>
GTQHJCOHNAFHRE-UHFFFAOYSA-N

>  <Repellency>
Inactive

>  <Reference DOI>
10.3390/toxics11100837

>  <Target Organism>
Not applied

$$$$
Compound 346
Actelion Java MolfileCreator 2.0

  0  0  0  0  0  0              0 V3000
M  V30 BEGIN CTAB
M  V30 COUNTS 12 11 0 0 0
M  V30 BEGIN ATOM
M  V30 1 Cl 0.0 0.0 0.0 0
M  V30 2 C 1.3004 0.7475 0.0 0
M  V30 3 C 2.6009 0.0 0.0 0
M  V30 4 C 3.9014 0.7475 0.0 0
M  V30 5 C 5.2018 0.0 0.0 0
M  V30 6 C 6.5023 0.7475 0.0 0
M  V30 7 C 7.8028 0.0 0.0 0
M  V30 8 C 9.1032 0.7475 0.0 0
M  V30 9 C 10.4037 0.0 0.0 0
M  V30 10 C 11.7042 0.7475 0.0 0
M  V30 11 C 13.0047 0.0 0.0 0
M  V30 12 C 14.3051 0.7475 0.0 0
M  V30 END ATOM
M  V30 BEGIN BOND
M  V30 1 1 1 2
M  V30 2 1 2 3
M  V30 3 1 3 4
M  V30 4 1 4 5
M  V30 5 1 5 6
M  V30 6 1 6 7
M  V30 7 1 7 8
M  V30 8 1 8 9
M  V30 9 1 9 10
M  V30 10 1 10 11
M  V30 11 1 11 12
M  V30 END BOND
M  V30 END CTAB
M  END
>  <Molecule Name>
Undecyl chloride

>  <Activity Label>
0

>  <SMILES>
CCCCCCCCCCCCl

>  <Molecular Formula>
C11H23Cl

>  <InChIKey>
ZHKKNUKCXPWZOP-UHFFFAOYSA-N

>  <Repellency>
Inactive

>  <Reference DOI>
10.3390/toxics11100837

>  <Target Organism>
Not applied

$$$$
Compound 347
Actelion Java MolfileCreator 2.0

  0  0  0  0  0  0              0 V3000
M  V30 BEGIN CTAB
M  V30 COUNTS 12 11 0 0 0
M  V30 BEGIN ATOM
M  V30 1 O 0.0 0.0 0.0 0
M  V30 2 C 0.0 1.5001 0.0 0
M  V30 3 O 1.2993 2.2443 0.0 0
M  V30 4 C -1.2993 2.2443 0.0 0
M  V30 5 C 2.5986 1.4883 0.0 0
M  V30 6 C -2.5986 1.4883 0.0 0
M  V30 7 C 3.8979 2.2324 0.0 0
M  V30 8 C -3.8979 2.2324 0.0 0
M  V30 9 O -3.8979 3.7326 0.0 0
M  V30 10 O -5.1973 1.4765 0.0 0
M  V30 11 C -6.4966 2.2206 0.0 0
M  V30 12 C -7.7959 1.4647 0.0 0
M  V30 END ATOM
M  V30 BEGIN BOND
M  V30 1 2 1 2
M  V30 2 1 2 3
M  V30 3 1 2 4
M  V30 4 1 3 5
M  V30 5 2 4 6
M  V30 6 1 5 7
M  V30 7 1 6 8
M  V30 8 2 8 9
M  V30 9 1 8 10
M  V30 10 1 10 11
M  V30 11 1 11 12
M  V30 END BOND
M  V30 END CTAB
M  END
>  <Molecule Name>
Fumaric acid, diethyl ester

>  <Activity Label>
0

>  <SMILES>
CCOC(/C=C/C(OCC)=O)=O

>  <Molecular Formula>
C8H12O4

>  <InChIKey>
IEPRKVQEAMIZSS-AATRIKPKSA-N

>  <Repellency>
Inactive

>  <Reference DOI>
10.3390/toxics11100837

>  <Target Organism>
Not applied

$$$$
Compound 348
Actelion Java MolfileCreator 2.0

  0  0  0  0  0  0              0 V3000
M  V30 BEGIN CTAB
M  V30 COUNTS 12 11 0 0 0
M  V30 BEGIN ATOM
M  V30 1 O 0.0 0.0 0.0 0
M  V30 2 C 0.0 1.5001 0.0 0
M  V30 3 O 1.2993 2.2443 0.0 0
M  V30 4 C -1.2993 2.2443 0.0 0
M  V30 5 C 2.5986 1.4883 0.0 0
M  V30 6 C -2.5986 1.4883 0.0 0
M  V30 7 C 3.8979 2.2324 0.0 0
M  V30 8 C -3.8979 2.2324 0.0 0
M  V30 9 O -3.8979 3.7326 0.0 0
M  V30 10 O -5.1973 1.4765 0.0 0
M  V30 11 C -6.4966 2.2206 0.0 0
M  V30 12 C -7.7959 1.4647 0.0 0
M  V30 END ATOM
M  V30 BEGIN BOND
M  V30 1 2 1 2
M  V30 2 1 2 3
M  V30 3 1 2 4
M  V30 4 1 3 5
M  V30 5 1 4 6
M  V30 6 1 5 7
M  V30 7 1 6 8
M  V30 8 2 8 9
M  V30 9 1 8 10
M  V30 10 1 10 11
M  V30 11 1 11 12
M  V30 END BOND
M  V30 END CTAB
M  END
>  <Molecule Name>
Succinic acid, diethyl ester

>  <Activity Label>
0

>  <SMILES>
CCOC(CCC(OCC)=O)=O

>  <Molecular Formula>
C8H14O4

>  <InChIKey>
DKMROQRQHGEIOW-UHFFFAOYSA-N

>  <Repellency>
Inactive

>  <Reference DOI>
10.3390/toxics11100837

>  <Target Organism>
Not applied

$$$$
Compound 349
Actelion Java MolfileCreator 2.0

  0  0  0  0  0  0              0 V3000
M  V30 BEGIN CTAB
M  V30 COUNTS 12 11 0 0 0
M  V30 BEGIN ATOM
M  V30 1 O 0.0 0.0 0.0 0
M  V30 2 C 0.0 -1.4993 0.0 0
M  V30 3 O 1.2986 -2.2549 0.0 0
M  V30 4 C -1.2986 -2.2549 0.0 0
M  V30 5 C 2.5972 -1.5111 0.0 0
M  V30 6 C -2.5972 -1.5111 0.0 0
M  V30 7 C -1.2986 -3.7542 0.0 0
M  V30 8 C 3.8959 -2.2667 0.0 0
M  V30 9 O -2.5972 -0.0118 0.0 0
M  V30 10 O -3.8959 -2.2667 0.0 0
M  V30 11 C -5.1945 -1.5229 0.0 0
M  V30 12 C -6.4932 -2.2785 0.0 0
M  V30 END ATOM
M  V30 BEGIN BOND
M  V30 1 2 1 2
M  V30 2 1 2 3
M  V30 3 1 2 4
M  V30 4 1 3 5
M  V30 5 1 4 6
M  V30 6 2 4 7
M  V30 7 1 5 8
M  V30 8 2 6 9
M  V30 9 1 6 10
M  V30 10 1 10 11
M  V30 11 1 11 12
M  V30 END BOND
M  V30 END CTAB
M  END
>  <Molecule Name>
Methylenemalonic acid, diethyl ester

>  <Activity Label>
0

>  <SMILES>
CCOC(C(C(OCC)=O)=C)=O

>  <Molecular Formula>
C8H12O4

>  <InChIKey>
BQHDXNZNSPVVKB-UHFFFAOYSA-N

>  <Repellency>
Inactive

>  <Reference DOI>
10.3390/toxics11100837

>  <Target Organism>
Not applied

$$$$
Compound 350
Actelion Java MolfileCreator 2.0

  0  0  0  0  0  0              0 V3000
M  V30 BEGIN CTAB
M  V30 COUNTS 12 11 0 0 0
M  V30 BEGIN ATOM
M  V30 1 O 0.0 0.0 0.0 0
M  V30 2 C 0.0 1.4998 0.0 0
M  V30 3 O -1.2991 2.2439 0.0 0
M  V30 4 C 1.2991 2.2439 0.0 0
M  V30 5 C -2.5982 1.488 0.0 0 CFG=2
M  V30 6 O 2.5982 1.488 0.0 0
M  V30 7 C -3.8973 2.2321 0.0 0
M  V30 8 C -2.5982 -0.0118 0.0 0
M  V30 9 C 3.8973 2.2321 0.0 0
M  V30 10 C -5.1964 1.4762 0.0 0
M  V30 11 O 3.8973 3.7319 0.0 0
M  V30 12 C 5.1964 1.4762 0.0 0
M  V30 END ATOM
M  V30 BEGIN BOND
M  V30 1 2 1 2
M  V30 2 1 2 3
M  V30 3 1 2 4
M  V30 4 1 3 5
M  V30 5 1 4 6
M  V30 6 1 5 7
M  V30 7 1 5 8 CFG=1
M  V30 8 1 6 9
M  V30 9 1 7 10
M  V30 10 2 9 11
M  V30 11 1 9 12
M  V30 END BOND
M  V30 BEGIN COLLECTION
M  V30 MDLV30/STERAC1 ATOMS=(1 5)
M  V30 END COLLECTION
M  V30 END CTAB
M  END
>  <Molecule Name>
Acetoxyacetic acid, sec-butyl ester

>  <Activity Label>
0

>  <SMILES>
CCC(C)OC(COC(C)=O)=O

>  <Molecular Formula>
C8H14O4

>  <InChIKey>
ZLFLQDLGDHDCHK-UHFFFAOYSA-N

>  <Repellency>
Inactive

>  <Reference DOI>
10.3390/toxics11100837

>  <Target Organism>
Not applied

$$$$
Compound 351
Actelion Java MolfileCreator 2.0

  0  0  0  0  0  0              0 V3000
M  V30 BEGIN CTAB
M  V30 COUNTS 12 11 0 0 0
M  V30 BEGIN ATOM
M  V30 1 O 0.0 0.0 0.0 0
M  V30 2 C 0.0 -1.4996 0.0 0
M  V30 3 O -1.2988 -2.2553 0.0 0
M  V30 4 C 1.2988 -2.2553 0.0 0 CFG=1
M  V30 5 C -2.5977 -1.5114 0.0 0
M  V30 6 O 2.5977 -1.5114 0.0 0
M  V30 7 C 1.2988 -3.7549 0.0 0
M  V30 8 C -2.5977 -0.0118 0.0 0
M  V30 9 C -3.8966 -2.2671 0.0 0
M  V30 10 C 3.8966 -2.2671 0.0 0
M  V30 11 O 3.8966 -3.7667 0.0 0
M  V30 12 C 5.1955 -1.5232 0.0 0
M  V30 END ATOM
M  V30 BEGIN BOND
M  V30 1 2 1 2
M  V30 2 1 2 3
M  V30 3 1 2 4
M  V30 4 1 3 5
M  V30 5 1 4 6
M  V30 6 1 4 7 CFG=1
M  V30 7 1 5 8
M  V30 8 1 5 9
M  V30 9 1 6 10
M  V30 10 2 10 11
M  V30 11 1 10 12
M  V30 END BOND
M  V30 BEGIN COLLECTION
M  V30 MDLV30/STERAC1 ATOMS=(1 4)
M  V30 END COLLECTION
M  V30 END CTAB
M  END
>  <Molecule Name>
alpha-Acetoxypropionic acid, iso-propyl ester

>  <Activity Label>
0

>  <SMILES>
CC(C)OC(C(C)OC(C)=O)=O

>  <Molecular Formula>
C8H14O4

>  <InChIKey>
IJENPVBWSAGDGM-UHFFFAOYSA-N

>  <Repellency>
Inactive

>  <Reference DOI>
10.3390/toxics11100837

>  <Target Organism>
Not applied

$$$$
Compound 352
Actelion Java MolfileCreator 2.0

  0  0  0  0  0  0              0 V3000
M  V30 BEGIN CTAB
M  V30 COUNTS 12 11 0 0 0
M  V30 BEGIN ATOM
M  V30 1 O 0.0 0.0 0.0 0
M  V30 2 C 0.0 1.5001 0.0 0
M  V30 3 O 1.2993 2.2443 0.0 0
M  V30 4 C -1.2993 2.2443 0.0 0
M  V30 5 C 2.5987 1.4883 0.0 0
M  V30 6 O -1.2993 3.7445 0.0 0
M  V30 7 O -2.5987 1.4883 0.0 0
M  V30 8 C 3.898 2.2325 0.0 0
M  V30 9 C 2.5987 -0.0118 0.0 0
M  V30 10 C -3.898 2.2325 0.0 0
M  V30 11 C -3.898 3.7326 0.0 0
M  V30 12 C -5.1974 1.4765 0.0 0
M  V30 END ATOM
M  V30 BEGIN BOND
M  V30 1 2 1 2
M  V30 2 1 2 3
M  V30 3 1 2 4
M  V30 4 1 3 5
M  V30 5 2 4 6
M  V30 6 1 4 7
M  V30 7 1 5 8
M  V30 8 1 5 9
M  V30 9 1 7 10
M  V30 10 1 10 11
M  V30 11 1 10 12
M  V30 END BOND
M  V30 END CTAB
M  END
>  <Molecule Name>
Oxalic acid, di-iso-propyl ester

>  <Activity Label>
0

>  <SMILES>
CC(C)OC(C(OC(C)C)=O)=O

>  <Molecular Formula>
C8H14O4

>  <InChIKey>
ITHNIFCFNUZYLQ-UHFFFAOYSA-N

>  <Repellency>
Inactive

>  <Reference DOI>
10.3390/toxics11100837

>  <Target Organism>
Not applied

$$$$
Compound 353
Actelion Java MolfileCreator 2.0

  0  0  0  0  0  0              0 V3000
M  V30 BEGIN CTAB
M  V30 COUNTS 12 11 0 0 0
M  V30 BEGIN ATOM
M  V30 1 O 0.0 0.0 0.0 0
M  V30 2 C 0.0 -1.4996 0.0 0
M  V30 3 O 1.2988 -2.2553 0.0 0
M  V30 4 C -1.2988 -2.2553 0.0 0
M  V30 5 C 2.5977 -1.5114 0.0 0
M  V30 6 C -2.5977 -1.5114 0.0 0
M  V30 7 C 3.8966 -2.2671 0.0 0
M  V30 8 O -2.5977 -0.0118 0.0 0
M  V30 9 O -3.8966 -2.2671 0.0 0
M  V30 10 C 5.1954 -1.5232 0.0 0
M  V30 11 C -5.1954 -1.5232 0.0 0
M  V30 12 C -6.4943 -2.2789 0.0 0
M  V30 END ATOM
M  V30 BEGIN BOND
M  V30 1 2 1 2
M  V30 2 1 2 3
M  V30 3 1 2 4
M  V30 4 1 3 5
M  V30 5 1 4 6
M  V30 6 1 5 7
M  V30 7 2 6 8
M  V30 8 1 6 9
M  V30 9 1 7 10
M  V30 10 1 9 11
M  V30 11 1 11 12
M  V30 END BOND
M  V30 END CTAB
M  END
>  <Molecule Name>
Malonic acid, ethyl propyl ester

>  <Activity Label>
0

>  <SMILES>
CCCOC(CC(OCC)=O)=O

>  <Molecular Formula>
C8H14O4

>  <InChIKey>
OLGXVKQPZBFKBA-UHFFFAOYSA-N

>  <Repellency>
Inactive

>  <Reference DOI>
10.3390/toxics11100837

>  <Target Organism>
Not applied

$$$$
Compound 354
Actelion Java MolfileCreator 2.0

  0  0  0  0  0  0              0 V3000
M  V30 BEGIN CTAB
M  V30 COUNTS 12 11 0 0 0
M  V30 BEGIN ATOM
M  V30 1 Cl 0.0 0.0 0.0 0
M  V30 2 C 1.297 0.7546 0.0 0
M  V30 3 C 2.594 0.0 0.0 0
M  V30 4 O 3.891 0.7546 0.0 0
M  V30 5 C 5.188 0.0 0.0 0
M  V30 6 C 6.485 0.7546 0.0 0
M  V30 7 O 7.782 0.0 0.0 0
M  V30 8 C 9.079 0.7546 0.0 0
M  V30 9 O 9.079 2.252 0.0 0
M  V30 10 C 10.376 0.0 0.0 0 CFG=1
M  V30 11 O 11.673 0.7546 0.0 0
M  V30 12 C 10.376 -1.4974 0.0 0
M  V30 END ATOM
M  V30 BEGIN BOND
M  V30 1 1 1 2
M  V30 2 1 2 3
M  V30 3 1 3 4
M  V30 4 1 4 5
M  V30 5 1 5 6
M  V30 6 1 6 7
M  V30 7 1 7 8
M  V30 8 2 8 9
M  V30 9 1 8 10
M  V30 10 1 10 11 CFG=1
M  V30 11 1 10 12
M  V30 END BOND
M  V30 BEGIN COLLECTION
M  V30 MDLV30/STERAC1 ATOMS=(1 10)
M  V30 END COLLECTION
M  V30 END CTAB
M  END
>  <Molecule Name>
Lactic acid, beta-chloroethoxyethyl ester

>  <Activity Label>
0

>  <SMILES>
CC(C(OCCOCCCl)=O)O

>  <Molecular Formula>
C7H13O4Cl

>  <InChIKey>
BBSGAINZMXZCTJ-UHFFFAOYSA-N

>  <Repellency>
Inactive

>  <Reference DOI>
10.3390/toxics11100837

>  <Target Organism>
Not applied

$$$$
Compound 355
Actelion Java MolfileCreator 2.0

  0  0  0  0  0  0              0 V3000
M  V30 BEGIN CTAB
M  V30 COUNTS 12 11 0 0 0
M  V30 BEGIN ATOM
M  V30 1 O 0.0 0.0 0.0 0
M  V30 2 C 0.0 -1.4993 0.0 0
M  V30 3 O -1.2986 -2.2548 0.0 0
M  V30 4 C 1.2986 -2.2548 0.0 0
M  V30 5 C -2.5972 -1.5111 0.0 0
M  V30 6 C 2.5972 -1.5111 0.0 0
M  V30 7 C -3.8958 -2.2666 0.0 0
M  V30 8 C 3.8958 -2.2666 0.0 0
M  V30 9 C -5.1944 -1.5229 0.0 0
M  V30 10 C 5.1944 -1.5229 0.0 0
M  V30 11 C -6.4931 -2.2784 0.0 0
M  V30 12 C 6.4931 -2.2784 0.0 0
M  V30 END ATOM
M  V30 BEGIN BOND
M  V30 1 2 1 2
M  V30 2 1 2 3
M  V30 3 1 2 4
M  V30 4 1 3 5
M  V30 5 1 4 6
M  V30 6 1 5 7
M  V30 7 1 6 8
M  V30 8 1 7 9
M  V30 9 1 8 10
M  V30 10 1 9 11
M  V30 11 1 10 12
M  V30 END BOND
M  V30 END CTAB
M  END
>  <Molecule Name>
Caproic acid, n-butyl ester

>  <Activity Label>
0

>  <SMILES>
CCCCCC(OCCCC)=O

>  <Molecular Formula>
C10H20O2

>  <InChIKey>
RPRPDTXKGSIXMD-UHFFFAOYSA-N

>  <Repellency>
Inactive

>  <Reference DOI>
10.3390/toxics11100837

>  <Target Organism>
Not applied

$$$$
Compound 356
Actelion Java MolfileCreator 2.0

  0  0  0  0  0  0              0 V3000
M  V30 BEGIN CTAB
M  V30 COUNTS 12 11 0 0 0
M  V30 BEGIN ATOM
M  V30 1 O 0.0 0.0 0.0 0
M  V30 2 C 0.0 1.4971 0.0 0
M  V30 3 O -1.2967 2.2516 0.0 0
M  V30 4 C 1.2967 2.2516 0.0 0
M  V30 5 C -2.5935 1.4971 0.0 0
M  V30 6 C 2.5935 1.4971 0.0 0
M  V30 7 C -3.8902 2.2516 0.0 0
M  V30 8 C 3.8902 2.2516 0.0 0
M  V30 9 C -5.187 1.4971 0.0 0
M  V30 10 C 5.187 1.4971 0.0 0
M  V30 11 C -6.4838 2.2516 0.0 0
M  V30 12 C -7.7805 1.4971 0.0 0
M  V30 END ATOM
M  V30 BEGIN BOND
M  V30 1 2 1 2
M  V30 2 1 2 3
M  V30 3 1 2 4
M  V30 4 1 3 5
M  V30 5 1 4 6
M  V30 6 1 5 7
M  V30 7 1 6 8
M  V30 8 1 7 9
M  V30 9 1 8 10
M  V30 10 1 9 11
M  V30 11 1 11 12
M  V30 END BOND
M  V30 END CTAB
M  END
>  <Molecule Name>
Valeric acid, amyl ester

>  <Activity Label>
0

>  <SMILES>
CCCCCOC(CCCC)=O

>  <Molecular Formula>
C10H20O2

>  <InChIKey>
FGPPDYNPZTUNIU-UHFFFAOYSA-N

>  <Repellency>
Inactive

>  <Reference DOI>
10.3390/toxics11100837

>  <Target Organism>
Not applied

$$$$
Compound 357
Actelion Java MolfileCreator 2.0

  0  0  0  0  0  0              0 V3000
M  V30 BEGIN CTAB
M  V30 COUNTS 12 11 0 0 0
M  V30 BEGIN ATOM
M  V30 1 O 0.0 0.0 0.0 0
M  V30 2 C -1.3002 -0.7447 0.0 0
M  V30 3 O -2.6005 0.0 0.0 0
M  V30 4 C -1.3002 -2.2459 0.0 0
M  V30 5 C -2.6005 1.5012 0.0 0
M  V30 6 C -1.3002 -3.7471 0.0 0
M  V30 7 C -3.9008 2.2459 0.0 0
M  V30 8 C -1.3002 -5.2484 0.0 0
M  V30 9 C -5.2011 3.0024 0.0 0
M  V30 10 C -2.6005 -5.9931 0.0 0
M  V30 11 C -3.9008 -5.2484 0.0 0
M  V30 12 C -5.2011 -5.9931 0.0 0
M  V30 END ATOM
M  V30 BEGIN BOND
M  V30 1 2 1 2
M  V30 2 1 2 3
M  V30 3 1 2 4
M  V30 4 1 3 5
M  V30 5 3 4 6
M  V30 6 1 5 7
M  V30 7 1 6 8
M  V30 8 3 7 9
M  V30 9 1 8 10
M  V30 10 1 10 11
M  V30 11 1 11 12
M  V30 END BOND
M  V30 END CTAB
M  END
>  <Molecule Name>
2-Heptynoic acid, propargyl ester

>  <Activity Label>
0

>  <SMILES>
CCCCC#CC(OCC#C)=O

>  <Molecular Formula>
C10H12O2

>  <InChIKey>
ZPKYISPHJXFUBZ-UHFFFAOYSA-N

>  <Repellency>
Inactive

>  <Reference DOI>
10.3390/toxics11100837

>  <Target Organism>
Not applied

$$$$
Compound 358
Actelion Java MolfileCreator 2.0

  0  0  0  0  0  0              0 V3000
M  V30 BEGIN CTAB
M  V30 COUNTS 12 11 0 0 0
M  V30 BEGIN ATOM
M  V30 1 O 0.0 0.0 0.0 0
M  V30 2 C 0.0 -1.4996 0.0 0
M  V30 3 O -1.2988 -2.2553 0.0 0
M  V30 4 C 1.2988 -2.2553 0.0 0
M  V30 5 C -2.5977 -1.5114 0.0 0 CFG=2
M  V30 6 C 2.5977 -1.5114 0.0 0
M  V30 7 C -3.8966 -2.2671 0.0 0
M  V30 8 C -2.5977 -0.0118 0.0 0
M  V30 9 C -5.1954 -1.5232 0.0 0
M  V30 10 C -6.4943 -2.2789 0.0 0
M  V30 11 C -7.7932 -1.535 0.0 0
M  V30 12 C -9.092 -2.2907 0.0 0
M  V30 END ATOM
M  V30 BEGIN BOND
M  V30 1 2 1 2
M  V30 2 1 2 3
M  V30 3 1 2 4
M  V30 4 1 3 5
M  V30 5 2 4 6
M  V30 6 1 5 7
M  V30 7 1 5 8 CFG=3
M  V30 8 1 7 9
M  V30 9 1 9 10
M  V30 10 1 10 11
M  V30 11 1 11 12
M  V30 END BOND
M  V30 BEGIN COLLECTION
M  V30 MDLV30/STERAC1 ATOMS=(1 5)
M  V30 END COLLECTION
M  V30 END CTAB
M  END
>  <Molecule Name>
Acrylic acid, 2-heptyl ester

>  <Activity Label>
0

>  <SMILES>
CCCCCC(C)OC(C=C)=O

>  <Molecular Formula>
C10H18O2

>  <InChIKey>
IQRVNLYKJBNWHE-UHFFFAOYSA-N

>  <Repellency>
Inactive

>  <Reference DOI>
10.3390/toxics11100837

>  <Target Organism>
Not applied

$$$$
Compound 359
Actelion Java MolfileCreator 2.0

  0  0  0  0  0  0              0 V3000
M  V30 BEGIN CTAB
M  V30 COUNTS 12 11 0 0 0
M  V30 BEGIN ATOM
M  V30 1 O 0.0 0.0 0.0 0
M  V30 2 C 0.0 1.4996 0.0 0
M  V30 3 O 1.2988 2.2434 0.0 0
M  V30 4 C -1.2988 2.2434 0.0 0 CFG=2
M  V30 5 C 2.5977 1.4877 0.0 0
M  V30 6 C -2.5977 1.4877 0.0 0
M  V30 7 C -1.2988 3.743 0.0 0
M  V30 8 C 3.8966 2.2316 0.0 0
M  V30 9 C -3.8966 2.2316 0.0 0
M  V30 10 C 0.0 4.4988 0.0 0
M  V30 11 C 5.1954 1.4759 0.0 0
M  V30 12 C -5.1954 1.4759 0.0 0
M  V30 END ATOM
M  V30 BEGIN BOND
M  V30 1 2 1 2
M  V30 2 1 2 3
M  V30 3 1 2 4
M  V30 4 1 3 5
M  V30 5 1 4 6 CFG=3
M  V30 6 1 4 7
M  V30 7 1 5 8
M  V30 8 1 6 9
M  V30 9 1 7 10
M  V30 10 2 8 11
M  V30 11 1 9 12
M  V30 END BOND
M  V30 BEGIN COLLECTION
M  V30 MDLV30/STERAC1 ATOMS=(1 4)
M  V30 END COLLECTION
M  V30 END CTAB
M  END
>  <Molecule Name>
alpha-Ethylvaleric acid, allyl ester

>  <Activity Label>
0

>  <SMILES>
CCCC(CC)C(OCC=C)=O

>  <Molecular Formula>
C10H18O2

>  <InChIKey>
XBFOPRIWLVVDKO-UHFFFAOYSA-N

>  <Repellency>
Inactive

>  <Reference DOI>
10.3390/toxics11100837

>  <Target Organism>
Not applied

$$$$
Compound 360
Actelion Java MolfileCreator 2.0

  0  0  0  0  0  0              0 V3000
M  V30 BEGIN CTAB
M  V30 COUNTS 12 11 0 0 0
M  V30 BEGIN ATOM
M  V30 1 O 0.0 0.0 0.0 0
M  V30 2 C 0.0 1.4998 0.0 0
M  V30 3 O -1.299 2.2438 0.0 0
M  V30 4 C 1.299 2.2438 0.0 0
M  V30 5 C -2.5981 1.488 0.0 0
M  V30 6 C 2.5981 1.488 0.0 0
M  V30 7 C 3.8972 2.232 0.0 0
M  V30 8 C 5.1963 1.4762 0.0 0
M  V30 9 C 6.4954 2.2202 0.0 0
M  V30 10 C 7.7945 1.4644 0.0 0
M  V30 11 C 9.0936 2.2084 0.0 0
M  V30 12 C 10.3926 1.4526 0.0 0
M  V30 END ATOM
M  V30 BEGIN BOND
M  V30 1 2 1 2
M  V30 2 1 2 3
M  V30 3 1 2 4
M  V30 4 1 3 5
M  V30 5 2 4 6 CFG=2
M  V30 6 1 6 7
M  V30 7 1 7 8
M  V30 8 1 8 9
M  V30 9 1 9 10
M  V30 10 1 10 11
M  V30 11 1 11 12
M  V30 END BOND
M  V30 END CTAB
M  END
>  <Molecule Name>
2-Nonenoic acid, methyl ester

>  <Activity Label>
0

>  <SMILES>
CCCCCCC=CC(OC)=O

>  <Molecular Formula>
C10H18O2

>  <InChIKey>
ZWNPUELCBZVMDA-UHFFFAOYSA-N

>  <Repellency>
Inactive

>  <Reference DOI>
10.3390/toxics11100837

>  <Target Organism>
Not applied

$$$$
Compound 361
Actelion Java MolfileCreator 2.0

  0  0  0  0  0  0              0 V3000
M  V30 BEGIN CTAB
M  V30 COUNTS 12 11 0 0 0
M  V30 BEGIN ATOM
M  V30 1 O 0.0 0.0 0.0 0
M  V30 2 C 0.0 -1.4971 0.0 0
M  V30 3 O -1.2967 -2.2516 0.0 0
M  V30 4 C 1.2967 -2.2516 0.0 0
M  V30 5 C -2.5935 -1.4971 0.0 0
M  V30 6 C -3.8902 -2.2516 0.0 0
M  V30 7 C -5.187 -1.4971 0.0 0
M  V30 8 C -6.4838 -2.2516 0.0 0
M  V30 9 C -7.7805 -1.4971 0.0 0
M  V30 10 C -9.0773 -2.2516 0.0 0
M  V30 11 C -10.3741 -1.4971 0.0 0
M  V30 12 C -11.6708 -2.2516 0.0 0
M  V30 END ATOM
M  V30 BEGIN BOND
M  V30 1 2 1 2
M  V30 2 1 2 3
M  V30 3 1 2 4
M  V30 4 1 3 5
M  V30 5 1 5 6
M  V30 6 1 6 7
M  V30 7 1 7 8
M  V30 8 1 8 9
M  V30 9 1 9 10
M  V30 10 1 10 11
M  V30 11 1 11 12
M  V30 END BOND
M  V30 END CTAB
M  END
>  <Molecule Name>
Acetic acid, octyl ester

>  <Activity Label>
0

>  <SMILES>
CCCCCCCCOC(C)=O

>  <Molecular Formula>
C10H20O2

>  <InChIKey>
YLYBTZIQSIBWLI-UHFFFAOYSA-N

>  <Repellency>
Inactive

>  <Reference DOI>
10.3390/toxics11100837

>  <Target Organism>
Not applied

$$$$
Compound 362
Actelion Java MolfileCreator 2.0

  0  0  0  0  0  0              0 V3000
M  V30 BEGIN CTAB
M  V30 COUNTS 12 11 0 0 0
M  V30 BEGIN ATOM
M  V30 1 O 0.0 0.0 0.0 0
M  V30 2 C 0.0 -1.4996 0.0 0
M  V30 3 O -1.2988 -2.2553 0.0 0
M  V30 4 C 1.2988 -2.2553 0.0 0
M  V30 5 C -2.5977 -1.5114 0.0 0
M  V30 6 C -3.8966 -2.2671 0.0 0 CFG=2
M  V30 7 C -5.1954 -1.5232 0.0 0
M  V30 8 C -3.8966 -3.7667 0.0 0
M  V30 9 C -6.4943 -2.2789 0.0 0
M  V30 10 C -2.5977 -4.5106 0.0 0
M  V30 11 C -7.7932 -1.535 0.0 0
M  V30 12 C -9.092 -2.2907 0.0 0
M  V30 END ATOM
M  V30 BEGIN BOND
M  V30 1 2 1 2
M  V30 2 1 2 3
M  V30 3 1 2 4
M  V30 4 1 3 5
M  V30 5 1 6 5 CFG=1
M  V30 6 1 6 7
M  V30 7 1 6 8
M  V30 8 1 7 9
M  V30 9 1 8 10
M  V30 10 1 9 11
M  V30 11 1 11 12
M  V30 END BOND
M  V30 BEGIN COLLECTION
M  V30 MDLV30/STERAC1 ATOMS=(1 6)
M  V30 END COLLECTION
M  V30 END CTAB
M  END
>  <Molecule Name>
Acetic acid, 2-ethylhexyl ester

>  <Activity Label>
0

>  <SMILES>
CCCCC(CC)COC(C)=O

>  <Molecular Formula>
C10H20O2

>  <InChIKey>
WOYWLLHHWAMFCB-UHFFFAOYSA-N

>  <Repellency>
Inactive

>  <Reference DOI>
10.3390/toxics11100837

>  <Target Organism>
Not applied

$$$$
Compound 363
Actelion Java MolfileCreator 2.0

  0  0  0  0  0  0              0 V3000
M  V30 BEGIN CTAB
M  V30 COUNTS 12 11 0 0 0
M  V30 BEGIN ATOM
M  V30 1 O 0.0 0.0 0.0 0
M  V30 2 C 0.0 1.4974 0.0 0
M  V30 3 O -1.297 2.252 0.0 0
M  V30 4 C 1.297 2.252 0.0 0
M  V30 5 C -2.594 1.4974 0.0 0 CFG=2
M  V30 6 C -3.891 2.252 0.0 0
M  V30 7 C -2.594 0.0 0.0 0
M  V30 8 C -5.188 1.4974 0.0 0
M  V30 9 C -6.485 2.252 0.0 0
M  V30 10 C -7.782 1.4974 0.0 0
M  V30 11 C -9.079 2.252 0.0 0
M  V30 12 C -10.376 1.4974 0.0 0
M  V30 END ATOM
M  V30 BEGIN BOND
M  V30 1 2 1 2
M  V30 2 1 2 3
M  V30 3 1 2 4
M  V30 4 1 3 5
M  V30 5 1 5 6
M  V30 6 1 5 7 CFG=1
M  V30 7 1 6 8
M  V30 8 1 8 9
M  V30 9 1 9 10
M  V30 10 1 10 11
M  V30 11 1 11 12
M  V30 END BOND
M  V30 BEGIN COLLECTION
M  V30 MDLV30/STERAC1 ATOMS=(1 5)
M  V30 END COLLECTION
M  V30 END CTAB
M  END
>  <Molecule Name>
Acetic acid, sec-octyl ester

>  <Activity Label>
0

>  <SMILES>
CCCCCCC(C)OC(C)=O

>  <Molecular Formula>
C10H20O2

>  <InChIKey>
SJFUDWKNZGXSLV-UHFFFAOYSA-N

>  <Repellency>
Inactive

>  <Reference DOI>
10.3390/toxics11100837

>  <Target Organism>
Not applied

$$$$
Compound 364
Actelion Java MolfileCreator 2.0

  0  0  0  0  0  0              0 V3000
M  V30 BEGIN CTAB
M  V30 COUNTS 12 11 0 0 0
M  V30 BEGIN ATOM
M  V30 1 O 0.0 0.0 0.0 0
M  V30 2 C 0.0 1.5001 0.0 0
M  V30 3 O -1.2993 2.2443 0.0 0
M  V30 4 C 1.2993 2.2443 0.0 0
M  V30 5 C -2.5986 1.4883 0.0 0 CFG=2
M  V30 6 C 2.5986 1.4883 0.0 0
M  V30 7 C -3.8979 2.2324 0.0 0
M  V30 8 C -2.5986 -0.0118 0.0 0
M  V30 9 C 3.8979 2.2324 0.0 0
M  V30 10 C -5.1973 1.4765 0.0 0
M  V30 11 C -6.4966 2.2206 0.0 0
M  V30 12 C -7.7959 1.4647 0.0 0
M  V30 END ATOM
M  V30 BEGIN BOND
M  V30 1 2 1 2
M  V30 2 1 2 3
M  V30 3 1 2 4
M  V30 4 1 3 5
M  V30 5 1 4 6
M  V30 6 1 5 7
M  V30 7 1 5 8 CFG=1
M  V30 8 1 6 9
M  V30 9 1 7 10
M  V30 10 1 10 11
M  V30 11 1 11 12
M  V30 END BOND
M  V30 BEGIN COLLECTION
M  V30 MDLV30/STERAC1 ATOMS=(1 5)
M  V30 END COLLECTION
M  V30 END CTAB
M  END
>  <Molecule Name>
n-Butyric acid, sec-hexyl ester

>  <Activity Label>
0

>  <SMILES>
CCCCC(C)OC(CCC)=O

>  <Molecular Formula>
C10H20O2

>  <InChIKey>
LRUMZDICEGQZIB-UHFFFAOYSA-N

>  <Repellency>
Inactive

>  <Reference DOI>
10.3390/toxics11100837

>  <Target Organism>
Not applied

$$$$
Compound 365
Actelion Java MolfileCreator 2.0

  0  0  0  0  0  0              0 V3000
M  V30 BEGIN CTAB
M  V30 COUNTS 12 11 0 0 0
M  V30 BEGIN ATOM
M  V30 1 O 0.0 0.0 0.0 0
M  V30 2 C 0.0 -1.5003 0.0 0
M  V30 3 O -1.2995 -2.2564 0.0 0
M  V30 4 C 1.2995 -2.2564 0.0 0
M  V30 5 C -2.5991 -1.5122 0.0 0
M  V30 6 C 2.0556 -0.9569 0.0 0
M  V30 7 C 2.5991 -3.0007 0.0 0
M  V30 8 C 0.5552 -3.556 0.0 0
M  V30 9 C -3.8986 -2.2683 0.0 0
M  V30 10 C -3.1543 -3.5678 0.0 0
M  V30 11 C -5.1982 -3.0125 0.0 0
M  V30 12 C -4.6429 -0.9687 0.0 0
M  V30 END ATOM
M  V30 BEGIN BOND
M  V30 1 2 1 2
M  V30 2 1 2 3
M  V30 3 1 2 4
M  V30 4 1 3 5
M  V30 5 1 4 6
M  V30 6 1 4 7
M  V30 7 1 4 8
M  V30 8 1 5 9
M  V30 9 1 9 10
M  V30 10 1 9 11
M  V30 11 1 9 12
M  V30 END BOND
M  V30 END CTAB
M  END
>  <Molecule Name>
Pivalic acid, neo-pentyl ester

>  <Activity Label>
0

>  <SMILES>
CC(C)(C)COC(C(C)(C)C)=O

>  <Molecular Formula>
C10H20O2

>  <InChIKey>
KEVRVUAKQLMNFS-UHFFFAOYSA-N

>  <Repellency>
Inactive

>  <Reference DOI>
10.3390/toxics11100837

>  <Target Organism>
Not applied

$$$$
Compound 366
Actelion Java MolfileCreator 2.0

  0  0  0  0  0  0              0 V3000
M  V30 BEGIN CTAB
M  V30 COUNTS 12 11 0 0 0
M  V30 BEGIN ATOM
M  V30 1 O 0.0 0.0 0.0 0
M  V30 2 C 0.0 -1.4996 0.0 0
M  V30 3 C 1.2988 -2.2553 0.0 0
M  V30 4 C -1.2988 -2.2553 0.0 0
M  V30 5 C 2.5977 -1.5114 0.0 0 CFG=2
M  V30 6 C -2.5977 -1.5114 0.0 0
M  V30 7 O 2.5977 -0.0118 0.0 0
M  V30 8 C 3.8966 -2.2671 0.0 0
M  V30 9 C -2.5977 -0.0118 0.0 0
M  V30 10 C -3.8966 -2.2671 0.0 0
M  V30 11 C 5.1955 -1.5232 0.0 0
M  V30 12 C 3.8966 -3.7667 0.0 0
M  V30 END ATOM
M  V30 BEGIN BOND
M  V30 1 2 1 2
M  V30 2 1 2 3
M  V30 3 1 2 4
M  V30 4 1 3 5
M  V30 5 1 4 6
M  V30 6 1 5 7 CFG=3
M  V30 7 1 5 8
M  V30 8 1 6 9
M  V30 9 1 6 10
M  V30 10 1 8 11
M  V30 11 1 8 12
M  V30 END BOND
M  V30 BEGIN COLLECTION
M  V30 MDLV30/STERAC1 ATOMS=(1 5)
M  V30 END COLLECTION
M  V30 END CTAB
M  END
>  <Molecule Name>
2,7-Dimethyloctane-3-ol-5-one

>  <Activity Label>
0

>  <SMILES>
CC(C)CC(CC(C(C)C)O)=O

>  <Molecular Formula>
C10H20O2

>  <InChIKey>
DLUOUVXXRXNEQK-UHFFFAOYSA-N

>  <Repellency>
Inactive

>  <Reference DOI>
10.3390/toxics11100837

>  <Target Organism>
Not applied

$$$$
Compound 367
Actelion Java MolfileCreator 2.0

  0  0  0  0  0  0              0 V3000
M  V30 BEGIN CTAB
M  V30 COUNTS 12 11 0 0 0
M  V30 BEGIN ATOM
M  V30 1 O 0.0 0.0 0.0 0
M  V30 2 C 1.3 0.7445 0.0 0
M  V30 3 C 2.6 1.4891 0.0 0
M  V30 4 C 2.0445 -0.5554 0.0 0
M  V30 5 C 0.5554 2.0445 0.0 0
M  V30 6 C 3.9 0.7327 0.0 0
M  V30 7 C 5.2 1.4772 0.0 0
M  V30 8 C 6.5 0.7209 0.0 0 CFG=1
M  V30 9 C 7.8001 1.4654 0.0 0
M  V30 10 C 6.5 -0.78 0.0 0
M  V30 11 C 9.1001 0.7091 0.0 0
M  V30 12 O 10.4001 1.4536 0.0 0
M  V30 END ATOM
M  V30 BEGIN BOND
M  V30 1 1 1 2
M  V30 2 1 2 3
M  V30 3 1 2 4
M  V30 4 1 2 5
M  V30 5 1 3 6
M  V30 6 1 6 7
M  V30 7 1 7 8
M  V30 8 1 8 9
M  V30 9 1 8 10 CFG=1
M  V30 10 1 9 11
M  V30 11 1 11 12
M  V30 END BOND
M  V30 BEGIN COLLECTION
M  V30 MDLV30/STERAC1 ATOMS=(1 8)
M  V30 END COLLECTION
M  V30 END CTAB
M  END
>  <Molecule Name>
3,7-Dimethyl-1,7-octanediol

>  <Activity Label>
0

>  <SMILES>
CC(CCCC(C)(C)O)CCO

>  <Molecular Formula>
C10H22O2

>  <InChIKey>
FPCCDPXRNNVUOM-UHFFFAOYSA-N

>  <Repellency>
Inactive

>  <Reference DOI>
10.3390/toxics11100837

>  <Target Organism>
Not applied

$$$$
Compound 368
Actelion Java MolfileCreator 2.0

  0  0  0  0  0  0              0 V3000
M  V30 BEGIN CTAB
M  V30 COUNTS 12 11 0 0 0
M  V30 BEGIN ATOM
M  V30 1 O 0.0 0.0 0.0 0
M  V30 2 C 1.3004 0.7475 0.0 0
M  V30 3 C 2.6009 0.0 0.0 0
M  V30 4 C 3.9014 0.7475 0.0 0
M  V30 5 C 5.2018 0.0 0.0 0
M  V30 6 C 6.5023 0.7475 0.0 0
M  V30 7 C 7.8028 0.0 0.0 0
M  V30 8 C 9.1032 0.7475 0.0 0
M  V30 9 C 10.4037 0.0 0.0 0
M  V30 10 C 11.7042 0.7475 0.0 0
M  V30 11 C 13.0047 0.0 0.0 0
M  V30 12 C 14.3051 0.7475 0.0 0
M  V30 END ATOM
M  V30 BEGIN BOND
M  V30 1 2 1 2
M  V30 2 1 2 3
M  V30 3 1 3 4
M  V30 4 1 4 5
M  V30 5 1 5 6
M  V30 6 1 6 7
M  V30 7 1 7 8
M  V30 8 1 8 9
M  V30 9 1 9 10
M  V30 10 1 10 11
M  V30 11 2 11 12
M  V30 END BOND
M  V30 END CTAB
M  END
>  <Molecule Name>
Undecylenaldehyde

>  <Activity Label>
0

>  <SMILES>
C=CCCCCCCCCC=O

>  <Molecular Formula>
C11H20O

>  <InChIKey>
OFHHDSQXFXLTKC-UHFFFAOYSA-N

>  <Repellency>
Inactive

>  <Reference DOI>
10.3390/toxics11100837

>  <Target Organism>
Not applied

$$$$
Compound 369
Actelion Java MolfileCreator 2.0

  0  0  0  0  0  0              0 V3000
M  V30 BEGIN CTAB
M  V30 COUNTS 12 11 0 0 0
M  V30 BEGIN ATOM
M  V30 1 O 0.0 0.0 0.0 0
M  V30 2 C 1.3004 0.7475 0.0 0
M  V30 3 C 2.6009 0.0 0.0 0
M  V30 4 C 3.9014 0.7475 0.0 0
M  V30 5 C 5.2018 0.0 0.0 0
M  V30 6 C 6.5023 0.7475 0.0 0
M  V30 7 C 7.8028 0.0 0.0 0
M  V30 8 C 9.1032 0.7475 0.0 0
M  V30 9 C 10.4037 0.0 0.0 0
M  V30 10 C 11.7042 0.7475 0.0 0
M  V30 11 C 13.0047 0.0 0.0 0
M  V30 12 C 14.3051 0.7475 0.0 0
M  V30 END ATOM
M  V30 BEGIN BOND
M  V30 1 1 1 2
M  V30 2 1 2 3
M  V30 3 1 3 4
M  V30 4 1 4 5
M  V30 5 1 5 6
M  V30 6 1 6 7
M  V30 7 1 7 8
M  V30 8 1 8 9
M  V30 9 1 9 10
M  V30 10 1 10 11
M  V30 11 1 11 12
M  V30 END BOND
M  V30 END CTAB
M  END
>  <Molecule Name>
n-Undecyl alcohol

>  <Activity Label>
0

>  <SMILES>
CCCCCCCCCCCO

>  <Molecular Formula>
C11H24O

>  <InChIKey>
KJIOQYGWTQBHNH-UHFFFAOYSA-N

>  <Repellency>
Inactive

>  <Reference DOI>
10.3390/toxics11100837

>  <Target Organism>
Not applied

$$$$
Compound 370
Actelion Java MolfileCreator 2.0

  0  0  0  0  0  0              0 V3000
M  V30 BEGIN CTAB
M  V30 COUNTS 12 11 0 0 0
M  V30 BEGIN ATOM
M  V30 1 O 0.0 0.0 0.0 0
M  V30 2 C 0.0 -1.4993 0.0 0
M  V30 3 C 1.2986 -2.2548 0.0 0
M  V30 4 C -1.2986 -2.2548 0.0 0
M  V30 5 C 2.5972 -1.5111 0.0 0
M  V30 6 C 3.8958 -2.2666 0.0 0
M  V30 7 C 5.1944 -1.5229 0.0 0
M  V30 8 C 6.4931 -2.2784 0.0 0
M  V30 9 C 7.7917 -1.5347 0.0 0
M  V30 10 C 9.0903 -2.2902 0.0 0
M  V30 11 C 10.3889 -1.5465 0.0 0
M  V30 12 C 11.6875 -2.3021 0.0 0
M  V30 END ATOM
M  V30 BEGIN BOND
M  V30 1 2 1 2
M  V30 2 1 2 3
M  V30 3 1 2 4
M  V30 4 1 3 5
M  V30 5 1 5 6
M  V30 6 1 6 7
M  V30 7 1 7 8
M  V30 8 1 8 9
M  V30 9 1 9 10
M  V30 10 1 10 11
M  V30 11 1 11 12
M  V30 END BOND
M  V30 END CTAB
M  END
>  <Molecule Name>
Methyl nonyl ketone

>  <Activity Label>
0

>  <SMILES>
CCCCCCCCCC(C)=O

>  <Molecular Formula>
C11H22O

>  <InChIKey>
KYWIYKKSMDLRDC-UHFFFAOYSA-N

>  <Repellency>
Inactive

>  <Reference DOI>
10.3390/toxics11100837

>  <Target Organism>
Not applied

$$$$
Compound 371
Actelion Java MolfileCreator 2.0

  0  0  0  0  0  0              0 V3000
M  V30 BEGIN CTAB
M  V30 COUNTS 12 11 0 0 0
M  V30 BEGIN ATOM
M  V30 1 O 0.0 0.0 0.0 0
M  V30 2 C 0.0 1.4998 0.0 0
M  V30 3 O -1.2991 2.2439 0.0 0
M  V30 4 C 1.2991 2.2439 0.0 0
M  V30 5 C -2.5982 1.488 0.0 0
M  V30 6 O 2.0549 3.543 0.0 0
M  V30 7 C 2.5982 1.488 0.0 0
M  V30 8 C 0.555 3.543 0.0 0
M  V30 9 O 2.5982 -0.0118 0.0 0
M  V30 10 C 3.8973 2.2321 0.0 0
M  V30 11 O 5.1964 1.4762 0.0 0
M  V30 12 C 3.8973 3.7319 0.0 0
M  V30 END ATOM
M  V30 BEGIN BOND
M  V30 1 2 1 2
M  V30 2 1 2 3
M  V30 3 1 2 4
M  V30 4 1 3 5
M  V30 5 1 4 6
M  V30 6 1 4 7
M  V30 7 1 4 8
M  V30 8 2 7 9
M  V30 9 1 7 10
M  V30 10 1 10 11
M  V30 11 1 10 12
M  V30 END BOND
M  V30 END CTAB
M  END
>  <Molecule Name>
Lactyllactic acid, methyl ester

>  <Activity Label>
0

>  <SMILES>
CC(C(C(C)(C(OC)=O)O)=O)O

>  <Molecular Formula>
C7H12O5

>  <InChIKey>
VZMGYOXNVFYBOV-UHFFFAOYSA-N

>  <Repellency>
Inactive

>  <Reference DOI>
10.3390/toxics11100837

>  <Target Organism>
Not applied

$$$$
Compound 372
Actelion Java MolfileCreator 2.0

  0  0  0  0  0  0              0 V3000
M  V30 BEGIN CTAB
M  V30 COUNTS 12 11 0 0 0
M  V30 BEGIN ATOM
M  V30 1 O 0.0 0.0 0.0 0
M  V30 2 C 0.0 -1.4993 0.0 0
M  V30 3 O 1.2986 -2.2549 0.0 0
M  V30 4 C -1.2986 -2.2549 0.0 0 CFG=1
M  V30 5 C 2.5972 -1.5111 0.0 0
M  V30 6 O -1.2986 -3.7542 0.0 0
M  V30 7 C -2.5972 -1.5111 0.0 0
M  V30 8 C -2.5972 -4.5098 0.0 0
M  V30 9 C -3.8959 -2.2667 0.0 0
M  V30 10 O -3.8959 -3.766 0.0 0
M  V30 11 O -5.1945 -1.5229 0.0 0
M  V30 12 C -6.4932 -2.2785 0.0 0
M  V30 END ATOM
M  V30 BEGIN BOND
M  V30 1 2 1 2
M  V30 2 1 2 3
M  V30 3 1 2 4
M  V30 4 1 3 5
M  V30 5 1 4 6 CFG=1
M  V30 6 1 4 7
M  V30 7 1 6 8
M  V30 8 1 7 9
M  V30 9 2 9 10
M  V30 10 1 9 11
M  V30 11 1 11 12
M  V30 END BOND
M  V30 BEGIN COLLECTION
M  V30 MDLV30/STERAC1 ATOMS=(1 4)
M  V30 END COLLECTION
M  V30 END CTAB
M  END
>  <Molecule Name>
Methoxysuccinic acid, dimethyl ester

>  <Activity Label>
0

>  <SMILES>
COC(CC(OC)=O)C(OC)=O

>  <Molecular Formula>
C7H12O5

>  <InChIKey>
CZGCYHISZCRQFR-UHFFFAOYSA-N

>  <Repellency>
Inactive

>  <Reference DOI>
10.3390/toxics11100837

>  <Target Organism>
Not applied

$$$$
Compound 373
Actelion Java MolfileCreator 2.0

  0  0  0  0  0  0              0 V3000
M  V30 BEGIN CTAB
M  V30 COUNTS 12 11 0 0 0
M  V30 BEGIN ATOM
M  V30 1 O 0.0 0.0 0.0 0
M  V30 2 C 0.0 -1.5001 0.0 0
M  V30 3 O -1.2993 -2.2561 0.0 0
M  V30 4 C 1.2993 -2.2561 0.0 0 CFG=2
M  V30 5 C -2.5986 -1.5119 0.0 0
M  V30 6 C 1.2993 -3.7562 0.0 0
M  V30 7 C 2.5986 -1.5119 0.0 0
M  V30 8 C -3.8979 -2.2679 0.0 0
M  V30 9 O 0.0 -4.5004 0.0 0
M  V30 10 C 2.5986 -4.5004 0.0 0
M  V30 11 C 3.8979 -2.2679 0.0 0
M  V30 12 C 5.1973 -1.5237 0.0 0
M  V30 END ATOM
M  V30 BEGIN BOND
M  V30 1 2 1 2
M  V30 2 1 2 3
M  V30 3 1 2 4
M  V30 4 1 3 5
M  V30 5 1 4 6
M  V30 6 1 4 7 CFG=1
M  V30 7 1 5 8
M  V30 8 2 6 9
M  V30 9 1 6 10
M  V30 10 1 7 11
M  V30 11 1 11 12
M  V30 END BOND
M  V30 BEGIN COLLECTION
M  V30 MDLV30/STERAC1 ATOMS=(1 4)
M  V30 END COLLECTION
M  V30 END CTAB
M  END
>  <Molecule Name>
2-Propylacetoacetic acid, ethyl ester

>  <Activity Label>
0

>  <SMILES>
CCCC(C(C)=O)C(OCC)=O

>  <Molecular Formula>
C9H16O3

>  <InChIKey>
VHOACUZAQKMOEQ-UHFFFAOYSA-N

>  <Repellency>
Inactive

>  <Reference DOI>
10.3390/toxics11100837

>  <Target Organism>
Not applied

$$$$
Compound 374
Actelion Java MolfileCreator 2.0

  0  0  0  0  0  0              0 V3000
M  V30 BEGIN CTAB
M  V30 COUNTS 12 11 0 0 0
M  V30 BEGIN ATOM
M  V30 1 O 0.0 0.0 0.0 0
M  V30 2 C 0.0 -1.4998 0.0 0
M  V30 3 O -1.2991 -2.2557 0.0 0
M  V30 4 C 1.2991 -2.2557 0.0 0
M  V30 5 C -2.5982 -1.5116 0.0 0
M  V30 6 O 2.5982 -1.5116 0.0 0
M  V30 7 C 1.2991 -3.7556 0.0 0
M  V30 8 C -3.8973 -2.2675 0.0 0
M  V30 9 C -3.8973 -3.7674 0.0 0
M  V30 10 C -5.1964 -1.5235 0.0 0
M  V30 11 C -2.5982 -4.5114 0.0 0
M  V30 12 C -6.4955 -2.2793 0.0 0
M  V30 END ATOM
M  V30 BEGIN BOND
M  V30 1 2 1 2
M  V30 2 1 2 3
M  V30 3 1 2 4
M  V30 4 1 3 5
M  V30 5 2 4 6
M  V30 6 1 4 7
M  V30 7 1 5 8
M  V30 8 1 8 9
M  V30 9 1 8 10
M  V30 10 1 9 11
M  V30 11 1 10 12
M  V30 END BOND
M  V30 END CTAB
M  END
>  <Molecule Name>
Pyruvic acid, 2-ethylbutyl ester

>  <Activity Label>
0

>  <SMILES>
CCC(CC)COC(C(C)=O)=O

>  <Molecular Formula>
C9H16O3

>  <InChIKey>
VIKSDBSJOWCTOG-UHFFFAOYSA-N

>  <Repellency>
Inactive

>  <Reference DOI>
10.3390/toxics11100837

>  <Target Organism>
Not applied

$$$$
Compound 375
Actelion Java MolfileCreator 2.0

  0  0  0  0  0  0              0 V3000
M  V30 BEGIN CTAB
M  V30 COUNTS 12 11 0 0 0
M  V30 BEGIN ATOM
M  V30 1 O 0.0 0.0 0.0 0
M  V30 2 C 0.0 -1.4998 0.0 0
M  V30 3 O -1.2991 -2.2557 0.0 0
M  V30 4 C 1.2991 -2.2557 0.0 0 CFG=1
M  V30 5 C -2.5982 -1.5116 0.0 0
M  V30 6 O 2.5982 -1.5116 0.0 0
M  V30 7 C 1.2991 -3.7556 0.0 0
M  V30 8 C -3.8973 -2.2675 0.0 0
M  V30 9 C -3.8973 -3.7674 0.0 0
M  V30 10 C -5.1964 -1.5235 0.0 0
M  V30 11 C -2.5982 -4.5114 0.0 0
M  V30 12 C -6.4955 -2.2793 0.0 0
M  V30 END ATOM
M  V30 BEGIN BOND
M  V30 1 2 1 2
M  V30 2 1 2 3
M  V30 3 1 2 4
M  V30 4 1 3 5
M  V30 5 1 4 6 CFG=1
M  V30 6 1 4 7
M  V30 7 1 5 8
M  V30 8 1 8 9
M  V30 9 1 8 10
M  V30 10 1 9 11
M  V30 11 1 10 12
M  V30 END BOND
M  V30 BEGIN COLLECTION
M  V30 MDLV30/STERAC1 ATOMS=(1 4)
M  V30 END COLLECTION
M  V30 END CTAB
M  END
>  <Molecule Name>
Lactic acid, 2-ethylbutyl ester

>  <Activity Label>
0

>  <SMILES>
CCC(CC)COC(C(C)O)=O

>  <Molecular Formula>
C9H18O3

>  <InChIKey>
XDINIYANIVUNGK-UHFFFAOYSA-N

>  <Repellency>
Inactive

>  <Reference DOI>
10.3390/toxics11100837

>  <Target Organism>
Not applied

$$$$
Compound 376
Actelion Java MolfileCreator 2.0

  0  0  0  0  0  0              0 V3000
M  V30 BEGIN CTAB
M  V30 COUNTS 12 11 0 0 0
M  V30 BEGIN ATOM
M  V30 1 O 0.0 0.0 0.0 0
M  V30 2 C 0.0 1.4998 0.0 0
M  V30 3 O 1.2991 2.2439 0.0 0
M  V30 4 O -1.2991 2.2439 0.0 0
M  V30 5 C 2.5982 1.488 0.0 0
M  V30 6 C -2.5982 1.488 0.0 0
M  V30 7 C 3.8973 2.2321 0.0 0
M  V30 8 C -3.8973 2.2321 0.0 0
M  V30 9 C 3.8973 3.7319 0.0 0
M  V30 10 C 5.1964 1.4762 0.0 0
M  V30 11 C -5.1964 1.4762 0.0 0
M  V30 12 C -3.8973 3.7319 0.0 0
M  V30 END ATOM
M  V30 BEGIN BOND
M  V30 1 2 1 2
M  V30 2 1 2 3
M  V30 3 1 2 4
M  V30 4 1 3 5
M  V30 5 1 4 6
M  V30 6 1 5 7
M  V30 7 1 6 8
M  V30 8 2 7 9
M  V30 9 1 7 10
M  V30 10 2 8 11
M  V30 11 1 8 12
M  V30 END BOND
M  V30 END CTAB
M  END
>  <Molecule Name>
Carbonic acid, dimethallyl ester

>  <Activity Label>
0

>  <SMILES>
CC(COC(OCC(C)=C)=O)=C

>  <Molecular Formula>
C9H14O3

>  <InChIKey>
SKCUYCAPQSWGBP-UHFFFAOYSA-N

>  <Repellency>
Inactive

>  <Reference DOI>
10.3390/toxics11100837

>  <Target Organism>
Not applied

$$$$
Compound 377
Actelion Java MolfileCreator 2.0

  0  0  0  0  0  0              0 V3000
M  V30 BEGIN CTAB
M  V30 COUNTS 12 11 0 0 0
M  V30 BEGIN ATOM
M  V30 1 O 0.0 0.0 0.0 0
M  V30 2 C 0.0 -1.4996 0.0 0
M  V30 3 O -1.2988 -2.2553 0.0 0
M  V30 4 C 1.2988 -2.2553 0.0 0
M  V30 5 C -2.5977 -1.5114 0.0 0
M  V30 6 C 2.5977 -1.5114 0.0 0
M  V30 7 C -3.8966 -2.2671 0.0 0
M  V30 8 O 3.8966 -2.2671 0.0 0
M  V30 9 C -5.1954 -1.5232 0.0 0
M  V30 10 C 5.1954 -1.5232 0.0 0
M  V30 11 C -5.1954 -0.0236 0.0 0
M  V30 12 C -6.4943 -2.2789 0.0 0
M  V30 END ATOM
M  V30 BEGIN BOND
M  V30 1 2 1 2
M  V30 2 1 2 3
M  V30 3 1 2 4
M  V30 4 1 3 5
M  V30 5 1 4 6
M  V30 6 1 5 7
M  V30 7 1 6 8
M  V30 8 1 7 9
M  V30 9 1 8 10
M  V30 10 1 9 11
M  V30 11 1 9 12
M  V30 END BOND
M  V30 END CTAB
M  END
>  <Molecule Name>
beta-Methoxypropionic acid, iso-amyl ester

>  <Activity Label>
0

>  <SMILES>
CC(C)CCOC(CCOC)=O

>  <Molecular Formula>
C9H18O3

>  <InChIKey>
HTXHJITVGBKCFR-UHFFFAOYSA-N

>  <Repellency>
Inactive

>  <Reference DOI>
10.3390/toxics11100837

>  <Target Organism>
Not applied

$$$$
Compound 378
Actelion Java MolfileCreator 2.0

  0  0  0  0  0  0              0 V3000
M  V30 BEGIN CTAB
M  V30 COUNTS 12 11 0 0 0
M  V30 BEGIN ATOM
M  V30 1 O 0.0 0.0 0.0 0
M  V30 2 C 0.0 1.4971 0.0 0
M  V30 3 O -1.2967 2.2516 0.0 0
M  V30 4 C 1.2967 2.2516 0.0 0
M  V30 5 C -2.5935 1.4971 0.0 0
M  V30 6 C 2.5935 1.4971 0.0 0
M  V30 7 C -3.8902 2.2516 0.0 0
M  V30 8 O 3.8902 2.2516 0.0 0
M  V30 9 C -5.187 1.4971 0.0 0
M  V30 10 C 5.187 1.4971 0.0 0
M  V30 11 C -6.4838 2.2516 0.0 0
M  V30 12 C -7.7805 1.4971 0.0 0
M  V30 END ATOM
M  V30 BEGIN BOND
M  V30 1 2 1 2
M  V30 2 1 2 3
M  V30 3 1 2 4
M  V30 4 1 3 5
M  V30 5 1 4 6
M  V30 6 1 5 7
M  V30 7 1 6 8
M  V30 8 1 7 9
M  V30 9 1 8 10
M  V30 10 1 9 11
M  V30 11 1 11 12
M  V30 END BOND
M  V30 END CTAB
M  END
>  <Molecule Name>
beta-Methoxypropionic acid, n-amyl ester

>  <Activity Label>
0

>  <SMILES>
CCCCCOC(CCOC)=O

>  <Molecular Formula>
C9H18O3

>  <InChIKey>
UQEZFXKMGDYGLZ-UHFFFAOYSA-N

>  <Repellency>
Inactive

>  <Reference DOI>
10.3390/toxics11100837

>  <Target Organism>
Not applied

$$$$
Compound 379
Actelion Java MolfileCreator 2.0

  0  0  0  0  0  0              0 V3000
M  V30 BEGIN CTAB
M  V30 COUNTS 12 11 0 0 0
M  V30 BEGIN ATOM
M  V30 1 O 0.0 0.0 0.0 0
M  V30 2 C 0.0 1.4998 0.0 0
M  V30 3 O -1.299 2.2438 0.0 0
M  V30 4 C 1.299 2.2438 0.0 0
M  V30 5 C -2.5981 1.488 0.0 0
M  V30 6 C 2.5981 1.488 0.0 0
M  V30 7 C -3.8972 2.232 0.0 0
M  V30 8 O 3.8972 2.232 0.0 0
M  V30 9 C -5.1963 1.4762 0.0 0
M  V30 10 C 5.1963 1.4762 0.0 0
M  V30 11 C 6.4954 2.2202 0.0 0
M  V30 12 C 7.7945 1.4644 0.0 0
M  V30 END ATOM
M  V30 BEGIN BOND
M  V30 1 2 1 2
M  V30 2 1 2 3
M  V30 3 1 2 4
M  V30 4 1 3 5
M  V30 5 1 4 6
M  V30 6 1 5 7
M  V30 7 1 6 8
M  V30 8 1 7 9
M  V30 9 1 8 10
M  V30 10 1 10 11
M  V30 11 1 11 12
M  V30 END BOND
M  V30 END CTAB
M  END
>  <Molecule Name>
beta-Propoxypropionic acid, propyl ester

>  <Activity Label>
0

>  <SMILES>
CCCOCCC(OCCC)=O

>  <Molecular Formula>
C9H18O3

>  <InChIKey>
YTUFRRBSSNRYID-UHFFFAOYSA-N

>  <Repellency>
Inactive

>  <Reference DOI>
10.3390/toxics11100837

>  <Target Organism>
Not applied

$$$$
Compound 380
Actelion Java MolfileCreator 2.0

  0  0  0  0  0  0              0 V3000
M  V30 BEGIN CTAB
M  V30 COUNTS 12 11 0 0 0
M  V30 BEGIN ATOM
M  V30 1 O 0.0 0.0 0.0 0
M  V30 2 C 0.0 -1.4993 0.0 0
M  V30 3 O -1.2986 -2.2549 0.0 0
M  V30 4 C 1.2986 -2.2549 0.0 0
M  V30 5 C -2.5972 -1.5111 0.0 0
M  V30 6 C 2.5972 -1.5111 0.0 0
M  V30 7 C -3.8959 -2.2667 0.0 0
M  V30 8 O 2.5972 -0.0118 0.0 0
M  V30 9 C 3.8959 -2.2667 0.0 0
M  V30 10 C 5.1945 -1.5229 0.0 0
M  V30 11 C 6.4932 -2.2785 0.0 0
M  V30 12 C 5.1945 -0.0236 0.0 0
M  V30 END ATOM
M  V30 BEGIN BOND
M  V30 1 2 1 2
M  V30 2 1 2 3
M  V30 3 1 2 4
M  V30 4 1 3 5
M  V30 5 1 4 6
M  V30 6 1 5 7
M  V30 7 2 6 8
M  V30 8 1 6 9
M  V30 9 1 9 10
M  V30 10 1 10 11
M  V30 11 1 10 12
M  V30 END BOND
M  V30 END CTAB
M  END
>  <Molecule Name>
iso-Propylacetoacetic acid, ethyl ester

>  <Activity Label>
0

>  <SMILES>
CCOC(CC(CC(C)C)=O)=O

>  <Molecular Formula>
C9H16O3

>  <InChIKey>
FNVGQABNHXEIBU-UHFFFAOYSA-N

>  <Repellency>
Inactive

>  <Reference DOI>
10.3390/toxics11100837

>  <Target Organism>
Not applied

$$$$
Compound 381
Actelion Java MolfileCreator 2.0

  0  0  0  0  0  0              0 V3000
M  V30 BEGIN CTAB
M  V30 COUNTS 12 11 0 0 0
M  V30 BEGIN ATOM
M  V30 1 O 0.0 0.0 0.0 0
M  V30 2 C 0.0 1.4974 0.0 0
M  V30 3 O -1.297 2.252 0.0 0
M  V30 4 C 1.297 2.252 0.0 0
M  V30 5 C -2.594 1.4974 0.0 0
M  V30 6 C 2.594 1.4974 0.0 0
M  V30 7 C -3.891 2.252 0.0 0
M  V30 8 O 3.891 2.252 0.0 0
M  V30 9 C 2.594 0.0 0.0 0
M  V30 10 C -5.188 1.4974 0.0 0
M  V30 11 C -6.485 2.252 0.0 0
M  V30 12 C -7.782 1.4974 0.0 0
M  V30 END ATOM
M  V30 BEGIN BOND
M  V30 1 2 1 2
M  V30 2 1 2 3
M  V30 3 1 2 4
M  V30 4 1 3 5
M  V30 5 1 4 6
M  V30 6 1 5 7
M  V30 7 2 6 8
M  V30 8 1 6 9
M  V30 9 1 7 10
M  V30 10 1 10 11
M  V30 11 1 11 12
M  V30 END BOND
M  V30 END CTAB
M  END
>  <Molecule Name>
Acetoacetic acid, n-amyl ester

>  <Activity Label>
0

>  <SMILES>
CCCCCOC(CC(C)=O)=O

>  <Molecular Formula>
C9H16O3

>  <InChIKey>
IDZAUPYMMSSVHP-UHFFFAOYSA-N

>  <Repellency>
Inactive

>  <Reference DOI>
10.3390/toxics11100837

>  <Target Organism>
Not applied

$$$$
Compound 382
Actelion Java MolfileCreator 2.0

  0  0  0  0  0  0              0 V3000
M  V30 BEGIN CTAB
M  V30 COUNTS 12 11 0 0 0
M  V30 BEGIN ATOM
M  V30 1 O 0.0 0.0 0.0 0
M  V30 2 C -1.2993 0.7441 0.0 0
M  V30 3 C 1.2993 0.7441 0.0 0
M  V30 4 O -1.2993 2.2443 0.0 0
M  V30 5 C -2.5986 -0.0118 0.0 0
M  V30 6 C 2.5986 -0.0118 0.0 0
M  V30 7 C 0.0 2.9884 0.0 0
M  V30 8 C -3.8979 0.7323 0.0 0
M  V30 9 C 0.0 4.4886 0.0 0
M  V30 10 O -5.1973 -0.0236 0.0 0
M  V30 11 C -6.4966 0.7205 0.0 0
M  V30 12 C -7.7959 -0.0354 0.0 0
M  V30 END ATOM
M  V30 BEGIN BOND
M  V30 1 1 1 2
M  V30 2 1 1 3
M  V30 3 1 2 4
M  V30 4 1 2 5
M  V30 5 1 3 6
M  V30 6 1 4 7
M  V30 7 1 5 8
M  V30 8 1 7 9
M  V30 9 1 8 10
M  V30 10 1 10 11
M  V30 11 1 11 12
M  V30 END BOND
M  V30 END CTAB
M  END
>  <Molecule Name>
3-Ethoxypropionaldehyde diethyl acetal

>  <Activity Label>
0

>  <SMILES>
CCOCCC(OCC)OCC

>  <Molecular Formula>
C9H20O3

>  <InChIKey>
LGICWIVABSMSDK-UHFFFAOYSA-N

>  <Repellency>
Inactive

>  <Reference DOI>
10.3390/toxics11100837

>  <Target Organism>
Not applied

$$$$
Compound 383
Actelion Java MolfileCreator 2.0

  0  0  0  0  0  0              0 V3000
M  V30 BEGIN CTAB
M  V30 COUNTS 12 11 0 0 0
M  V30 BEGIN ATOM
M  V30 1 O 0.0 0.0 0.0 0
M  V30 2 C -1.2988 -0.7557 0.0 0
M  V30 3 C 1.2988 -0.7557 0.0 0
M  V30 4 C -2.5977 -0.0118 0.0 0
M  V30 5 C 2.5977 -0.0118 0.0 0
M  V30 6 O -3.8966 -0.7675 0.0 0
M  V30 7 C 2.5977 1.4878 0.0 0
M  V30 8 C -5.1955 -0.0236 0.0 0
M  V30 9 N 2.5977 2.9874 0.0 0
M  V30 10 C -6.4944 -0.7793 0.0 0
M  V30 11 C -6.4944 -2.2789 0.0 0
M  V30 12 N -6.4944 -3.7785 0.0 0
M  V30 END ATOM
M  V30 BEGIN BOND
M  V30 1 1 1 2
M  V30 2 1 1 3
M  V30 3 1 2 4
M  V30 4 1 3 5
M  V30 5 1 4 6
M  V30 6 1 5 7
M  V30 7 1 6 8
M  V30 8 3 7 9
M  V30 9 1 8 10
M  V30 10 1 10 11
M  V30 11 3 11 12
M  V30 END BOND
M  V30 END CTAB
M  END
>  <Molecule Name>
Ethylene glycol bis-(beta-cyano ethyl) ether

>  <Activity Label>
0

>  <SMILES>
N#CCCOCCOCCC#N

>  <Molecular Formula>
C8H12N2O2

>  <InChIKey>
VTHRQKSLPFJQHN-UHFFFAOYSA-N

>  <Repellency>
Inactive

>  <Reference DOI>
10.3390/toxics11100837

>  <Target Organism>
Not applied

$$$$
Compound 384
Actelion Java MolfileCreator 2.0

  0  0  0  0  0  0              0 V3000
M  V30 BEGIN CTAB
M  V30 COUNTS 12 11 0 0 0
M  V30 BEGIN ATOM
M  V30 1 O 0.0 0.0 0.0 0
M  V30 2 C 0.0 -1.4982 0.0 0
M  V30 3 O -1.2976 -2.2532 0.0 0
M  V30 4 C 1.2976 -2.2532 0.0 0
M  V30 5 C -2.5953 -1.4982 0.0 0
M  V30 6 C 2.5953 -1.51 0.0 0
M  V30 7 C -3.893 -2.2532 0.0 0
M  V30 8 N 3.893 -0.7668 0.0 0
M  V30 9 C -5.1907 -1.4982 0.0 0
M  V30 10 C -6.4884 -2.2532 0.0 0
M  V30 11 C -7.7861 -1.4982 0.0 0
M  V30 12 C -9.0838 -2.2532 0.0 0
M  V30 END ATOM
M  V30 BEGIN BOND
M  V30 1 2 1 2
M  V30 2 1 2 3
M  V30 3 1 2 4
M  V30 4 1 3 5
M  V30 5 1 4 6
M  V30 6 1 5 7
M  V30 7 3 6 8
M  V30 8 1 7 9
M  V30 9 1 9 10
M  V30 10 1 10 11
M  V30 11 1 11 12
M  V30 END BOND
M  V30 END CTAB
M  END
>  <Molecule Name>
Cyanoacetic acid, n-hexyl ester

>  <Activity Label>
0

>  <SMILES>
CCCCCCOC(CC#N)=O

>  <Molecular Formula>
C9H15NO2

>  <InChIKey>
PWKKBTPSCGLYBR-UHFFFAOYSA-N

>  <Repellency>
Inactive

>  <Reference DOI>
10.3390/toxics11100837

>  <Target Organism>
Not applied

$$$$
Compound 385
Actelion Java MolfileCreator 2.0

  0  0  0  0  0  0              0 V3000
M  V30 BEGIN CTAB
M  V30 COUNTS 12 11 0 0 0
M  V30 BEGIN ATOM
M  V30 1 O 0.0 0.0 0.0 0
M  V30 2 C 0.0 -1.5017 0.0 0
M  V30 3 O -1.3007 -2.2467 0.0 0
M  V30 4 C 1.3007 -2.2467 0.0 0
M  V30 5 C -2.6014 -1.5017 0.0 0
M  V30 6 C 2.6014 -1.5017 0.0 0
M  V30 7 C -3.9021 -2.2467 0.0 0
M  V30 8 N 3.9021 -2.2467 0.0 0
M  V30 9 C 5.2029 -1.5017 0.0 0
M  V30 10 C 3.9021 -3.7484 0.0 0
M  V30 11 C 6.5036 -2.2467 0.0 0
M  V30 12 C 5.2029 -4.5052 0.0 0
M  V30 END ATOM
M  V30 BEGIN BOND
M  V30 1 2 1 2
M  V30 2 1 2 3
M  V30 3 1 2 4
M  V30 4 1 3 5
M  V30 5 1 4 6
M  V30 6 1 5 7
M  V30 7 1 6 8
M  V30 8 1 8 9
M  V30 9 1 8 10
M  V30 10 1 9 11
M  V30 11 1 10 12
M  V30 END BOND
M  V30 END CTAB
M  END
>  <Molecule Name>
beta-Diethylaminopropionic acid, ethyl ester

>  <Activity Label>
0

>  <SMILES>
CCN(CC)CCC(OCC)=O

>  <Molecular Formula>
C9H19NO2

>  <InChIKey>
QDISKADULUYVBM-UHFFFAOYSA-N

>  <Repellency>
Inactive

>  <Reference DOI>
10.3390/toxics11100837

>  <Target Organism>
Not applied

$$$$
Compound 386
Actelion Java MolfileCreator 2.0

  0  0  0  0  0  0              0 V3000
M  V30 BEGIN CTAB
M  V30 COUNTS 13 12 0 0 0
M  V30 BEGIN ATOM
M  V30 1 Br 0.0 0.0 0.0 0
M  V30 2 C 1.3004 0.7475 0.0 0
M  V30 3 C 2.6009 0.0 0.0 0
M  V30 4 C 3.9014 0.7475 0.0 0
M  V30 5 C 5.2018 0.0 0.0 0
M  V30 6 C 6.5023 0.7475 0.0 0
M  V30 7 C 7.8028 0.0 0.0 0
M  V30 8 C 9.1032 0.7475 0.0 0
M  V30 9 C 10.4037 0.0 0.0 0
M  V30 10 C 11.7042 0.7475 0.0 0
M  V30 11 C 13.0047 0.0 0.0 0
M  V30 12 C 14.3051 0.7475 0.0 0
M  V30 13 C 15.6056 0.0 0.0 0
M  V30 END ATOM
M  V30 BEGIN BOND
M  V30 1 1 1 2
M  V30 2 1 2 3
M  V30 3 1 3 4
M  V30 4 1 4 5
M  V30 5 1 5 6
M  V30 6 1 6 7
M  V30 7 1 7 8
M  V30 8 1 8 9
M  V30 9 1 9 10
M  V30 10 1 10 11
M  V30 11 1 11 12
M  V30 12 1 12 13
M  V30 END BOND
M  V30 END CTAB
M  END
>  <Molecule Name>
Lauryl bromide

>  <Activity Label>
0

>  <SMILES>
CCCCCCCCCCCCBr

>  <Molecular Formula>
C12H25Br

>  <InChIKey>
PBLNBZIONSLZBU-UHFFFAOYSA-N

>  <Repellency>
Inactive

>  <Reference DOI>
10.3390/toxics11100837

>  <Target Organism>
Not applied

$$$$
Compound 387
Actelion Java MolfileCreator 2.0

  0  0  0  0  0  0              0 V3000
M  V30 BEGIN CTAB
M  V30 COUNTS 13 12 0 0 0
M  V30 BEGIN ATOM
M  V30 1 O 0.0 0.0 0.0 0
M  V30 2 C 0.0 -1.4994 0.0 0
M  V30 3 O 1.2986 -2.255 0.0 0
M  V30 4 C -1.2986 -2.255 0.0 0
M  V30 5 C 2.5973 -1.5112 0.0 0
M  V30 6 C -2.5973 -1.5112 0.0 0
M  V30 7 C 3.896 -2.2668 0.0 0
M  V30 8 C 2.5973 -0.0118 0.0 0
M  V30 9 O -2.5973 -0.0118 0.0 0
M  V30 10 O -3.896 -2.2668 0.0 0
M  V30 11 C -5.1947 -1.523 0.0 0
M  V30 12 C -5.1947 -0.0236 0.0 0
M  V30 13 C -6.4934 -2.2786 0.0 0
M  V30 END ATOM
M  V30 BEGIN BOND
M  V30 1 2 1 2
M  V30 2 1 2 3
M  V30 3 1 2 4
M  V30 4 1 3 5
M  V30 5 1 4 6
M  V30 6 1 5 7
M  V30 7 1 5 8
M  V30 8 2 6 9
M  V30 9 1 6 10
M  V30 10 1 10 11
M  V30 11 1 11 12
M  V30 12 1 11 13
M  V30 END BOND
M  V30 END CTAB
M  END
>  <Molecule Name>
Malonic acid, diiso-propyl ester

>  <Activity Label>
0

>  <SMILES>
CC(C)OC(CC(OC(C)C)=O)=O

>  <Molecular Formula>
C9H16O4

>  <InChIKey>
QRVSDVDFJFKYKA-UHFFFAOYSA-N

>  <Repellency>
Inactive

>  <Reference DOI>
10.3390/toxics11100837

>  <Target Organism>
Not applied

$$$$
Compound 388
Actelion Java MolfileCreator 2.0

  0  0  0  0  0  0              0 V3000
M  V30 BEGIN CTAB
M  V30 COUNTS 13 12 0 0 0
M  V30 BEGIN ATOM
M  V30 1 O 0.0 0.0 0.0 0
M  V30 2 C 0.0 -1.4996 0.0 0
M  V30 3 O -1.2988 -2.2553 0.0 0
M  V30 4 C 1.2988 -2.2553 0.0 0
M  V30 5 C -2.5977 -1.5114 0.0 0
M  V30 6 C 1.2988 -3.7549 0.0 0
M  V30 7 C 2.5977 -1.5114 0.0 0
M  V30 8 C -3.8966 -2.2671 0.0 0
M  V30 9 C 3.8966 -2.2671 0.0 0
M  V30 10 O 3.8966 -3.7667 0.0 0
M  V30 11 O 5.1955 -1.5232 0.0 0
M  V30 12 C 6.4944 -2.2789 0.0 0
M  V30 13 C 7.7933 -1.535 0.0 0
M  V30 END ATOM
M  V30 BEGIN BOND
M  V30 1 2 1 2
M  V30 2 1 2 3
M  V30 3 1 2 4
M  V30 4 1 3 5
M  V30 5 2 4 6
M  V30 6 1 4 7
M  V30 7 1 5 8
M  V30 8 1 7 9
M  V30 9 2 9 10
M  V30 10 1 9 11
M  V30 11 1 11 12
M  V30 12 1 12 13
M  V30 END BOND
M  V30 END CTAB
M  END
>  <Molecule Name>
Itaconic acid, diethyl ester

>  <Activity Label>
0

>  <SMILES>
CCOC(CC(C(OCC)=O)=C)=O

>  <Molecular Formula>
C9H14O4

>  <InChIKey>
ZEFVHSWKYCYFFL-UHFFFAOYSA-N

>  <Repellency>
Inactive

>  <Reference DOI>
10.3390/toxics11100837

>  <Target Organism>
Not applied

$$$$
Compound 389
Actelion Java MolfileCreator 2.0

  0  0  0  0  0  0              0 V3000
M  V30 BEGIN CTAB
M  V30 COUNTS 13 12 0 0 0
M  V30 BEGIN ATOM
M  V30 1 O 0.0 0.0 0.0 0
M  V30 2 C 0.0 -1.4996 0.0 0
M  V30 3 O -1.2988 -2.2553 0.0 0
M  V30 4 C 1.2988 -2.2553 0.0 0 CFG=1
M  V30 5 C -2.5977 -1.5114 0.0 0
M  V30 6 O 2.5977 -1.5114 0.0 0
M  V30 7 C 1.2988 -3.7549 0.0 0
M  V30 8 C -3.8966 -2.2671 0.0 0
M  V30 9 C 3.8966 -2.2671 0.0 0
M  V30 10 C -5.1955 -1.5232 0.0 0
M  V30 11 O 3.8966 -3.7667 0.0 0
M  V30 12 C 5.1955 -1.5232 0.0 0
M  V30 13 C -6.4944 -2.2789 0.0 0
M  V30 END ATOM
M  V30 BEGIN BOND
M  V30 1 2 1 2
M  V30 2 1 2 3
M  V30 3 1 2 4
M  V30 4 1 3 5
M  V30 5 1 4 6
M  V30 6 1 4 7 CFG=1
M  V30 7 1 5 8
M  V30 8 1 6 9
M  V30 9 2 8 10 CFG=2
M  V30 10 2 9 11
M  V30 11 1 9 12
M  V30 12 1 10 13
M  V30 END BOND
M  V30 BEGIN COLLECTION
M  V30 MDLV30/STERAC1 ATOMS=(1 4)
M  V30 END COLLECTION
M  V30 END CTAB
M  END
>  <Molecule Name>
alpha-Acetoxypropionic acid, crotyl ester

>  <Activity Label>
0

>  <SMILES>
CC(C(OCC=CC)=O)OC(C)=O

>  <Molecular Formula>
C9H14O4

>  <InChIKey>
UDVCGKGOVJFCHI-UHFFFAOYSA-N

>  <Repellency>
Inactive

>  <Reference DOI>
10.3390/toxics11100837

>  <Target Organism>
Not applied

$$$$
Compound 390
Actelion Java MolfileCreator 2.0

  0  0  0  0  0  0              0 V3000
M  V30 BEGIN CTAB
M  V30 COUNTS 13 12 0 0 0
M  V30 BEGIN ATOM
M  V30 1 O 0.0 0.0 0.0 0
M  V30 2 C 0.0 1.5006 0.0 0
M  V30 3 O -1.2997 2.245 0.0 0
M  V30 4 C 1.2997 2.245 0.0 0 CFG=1
M  V30 5 C -2.5994 1.4888 0.0 0
M  V30 6 O 2.5994 1.4888 0.0 0
M  V30 7 C 1.2997 3.7456 0.0 0
M  V30 8 C -1.855 0.189 0.0 0
M  V30 9 C -3.8992 0.7444 0.0 0
M  V30 10 C -3.3438 2.7885 0.0 0
M  V30 11 C 3.8992 2.2332 0.0 0
M  V30 12 O 3.8992 3.7338 0.0 0
M  V30 13 C 5.1989 1.4769 0.0 0
M  V30 END ATOM
M  V30 BEGIN BOND
M  V30 1 2 1 2
M  V30 2 1 2 3
M  V30 3 1 2 4
M  V30 4 1 3 5
M  V30 5 1 4 6
M  V30 6 1 4 7 CFG=3
M  V30 7 1 5 8
M  V30 8 1 5 9
M  V30 9 1 5 10
M  V30 10 1 6 11
M  V30 11 2 11 12
M  V30 12 1 11 13
M  V30 END BOND
M  V30 BEGIN COLLECTION
M  V30 MDLV30/STERAC1 ATOMS=(1 4)
M  V30 END COLLECTION
M  V30 END CTAB
M  END
>  <Molecule Name>
alpha-Acetoxypropionic acid, tert-butyl ester

>  <Activity Label>
0

>  <SMILES>
CC(C(OC(C)(C)C)=O)OC(C)=O

>  <Molecular Formula>
C9H16O4

>  <InChIKey>
PHNMHWJIWPTKNO-UHFFFAOYSA-N

>  <Repellency>
Inactive

>  <Reference DOI>
10.3390/toxics11100837

>  <Target Organism>
Not applied

$$$$
Compound 391
Actelion Java MolfileCreator 2.0

  0  0  0  0  0  0              0 V3000
M  V30 BEGIN CTAB
M  V30 COUNTS 13 12 0 0 0
M  V30 BEGIN ATOM
M  V30 1 O 0.0 0.0 0.0 0
M  V30 2 C 0.0 1.4998 0.0 0
M  V30 3 O 1.299 2.2438 0.0 0
M  V30 4 C -1.299 2.2438 0.0 0
M  V30 5 C 2.5981 1.488 0.0 0
M  V30 6 C -2.5981 1.488 0.0 0
M  V30 7 C 3.8972 2.232 0.0 0
M  V30 8 O -2.5981 -0.0118 0.0 0
M  V30 9 O -3.8972 2.232 0.0 0
M  V30 10 C 5.1963 1.4762 0.0 0
M  V30 11 C -5.1963 1.4762 0.0 0
M  V30 12 C -6.4954 2.2202 0.0 0
M  V30 13 C -7.7945 1.4644 0.0 0
M  V30 END ATOM
M  V30 BEGIN BOND
M  V30 1 2 1 2
M  V30 2 1 2 3
M  V30 3 1 2 4
M  V30 4 1 3 5
M  V30 5 1 4 6
M  V30 6 1 5 7
M  V30 7 2 6 8
M  V30 8 1 6 9
M  V30 9 1 7 10
M  V30 10 1 9 11
M  V30 11 1 11 12
M  V30 12 1 12 13
M  V30 END BOND
M  V30 END CTAB
M  END
>  <Molecule Name>
Malonic acid, dipropyl ester

>  <Activity Label>
0

>  <SMILES>
CCCOC(CC(OCCC)=O)=O

>  <Molecular Formula>
C9H16O4

>  <InChIKey>
LWIWFCDNJNZEKB-UHFFFAOYSA-N

>  <Repellency>
Inactive

>  <Reference DOI>
10.3390/toxics11100837

>  <Target Organism>
Not applied

$$$$
Compound 392
Actelion Java MolfileCreator 2.0

  0  0  0  0  0  0              0 V3000
M  V30 BEGIN CTAB
M  V30 COUNTS 13 12 0 0 0
M  V30 BEGIN ATOM
M  V30 1 O 0.0 0.0 0.0 0
M  V30 2 C 0.0 -1.4996 0.0 0
M  V30 3 O -1.2988 -2.2553 0.0 0
M  V30 4 C 1.2988 -2.2553 0.0 0
M  V30 5 C -2.5977 -1.5114 0.0 0
M  V30 6 C 2.5977 -1.5114 0.0 0
M  V30 7 C -2.5977 -0.0118 0.0 0
M  V30 8 C -3.8966 -2.2671 0.0 0
M  V30 9 C 3.8966 -2.2671 0.0 0
M  V30 10 C 5.1955 -1.5232 0.0 0
M  V30 11 C 6.4944 -2.2789 0.0 0
M  V30 12 O 7.7933 -1.535 0.0 0
M  V30 13 O 6.4944 -3.7786 0.0 0 CHG=-1
M  V30 END ATOM
M  V30 BEGIN BOND
M  V30 1 2 1 2
M  V30 2 1 2 3
M  V30 3 1 2 4
M  V30 4 1 3 5
M  V30 5 1 4 6
M  V30 6 1 5 7
M  V30 7 1 5 8
M  V30 8 1 6 9
M  V30 9 1 9 10
M  V30 10 1 10 11
M  V30 11 2 11 12
M  V30 12 1 11 13
M  V30 END BOND
M  V30 END CTAB
M  END
>  <Molecule Name>
Adipic acid, mono-iso-propyl ester

>  <Activity Label>
0

>  <SMILES>
CC(C)OC(CCCCC([O-])=O)=O

>  <Molecular Formula>
C9H15O4

>  <InChIKey>
BRPCDOLEVHTTRE-UHFFFAOYSA-M

>  <Repellency>
Inactive

>  <Reference DOI>
10.3390/toxics11100837

>  <Target Organism>
Not applied

$$$$
Compound 393
Actelion Java MolfileCreator 2.0

  0  0  0  0  0  0              0 V3000
M  V30 BEGIN CTAB
M  V30 COUNTS 13 12 0 0 0
M  V30 BEGIN ATOM
M  V30 1 Cl 0.0 0.0 0.0 0
M  V30 2 C 0.0 -1.4989 0.0 0
M  V30 3 C 1.2982 -2.2542 0.0 0
M  V30 4 C -1.2982 -2.2542 0.0 0
M  V30 5 O 1.2982 -3.7531 0.0 0
M  V30 6 O 2.5965 -1.5107 0.0 0
M  V30 7 C -1.2982 -3.7531 0.0 0
M  V30 8 C 3.8948 -2.266 0.0 0
M  V30 9 O 0.0 -4.5085 0.0 0
M  V30 10 O -2.5965 -4.5085 0.0 0 CHG=-1
M  V30 11 C 5.193 -1.5225 0.0 0
M  V30 12 Cl 6.4913 -2.2778 0.0 0
M  V30 13 Cl 5.193 -0.0236 0.0 0
M  V30 END ATOM
M  V30 BEGIN BOND
M  V30 1 1 1 2
M  V30 2 1 2 3
M  V30 3 2 2 4
M  V30 4 2 3 5
M  V30 5 1 3 6
M  V30 6 1 4 7
M  V30 7 1 6 8
M  V30 8 2 7 9
M  V30 9 1 7 10
M  V30 10 1 8 11
M  V30 11 1 11 12
M  V30 12 1 11 13
M  V30 END BOND
M  V30 END CTAB
M  END
>  <Molecule Name>
Chloromaleic acid, dichloroethyl ester

>  <Activity Label>
0

>  <SMILES>
[O-]C(/C=C(\C(OCC(Cl)Cl)=O)/Cl)=O

>  <Molecular Formula>
C6H4O4Cl3

>  <InChIKey>
MQTVXSBBNXOFDE-HNQUOIGGSA-M

>  <Repellency>
Inactive

>  <Reference DOI>
10.3390/toxics11100837

>  <Target Organism>
Not applied

$$$$
Compound 394
Actelion Java MolfileCreator 2.0

  0  0  0  0  0  0              0 V3000
M  V30 BEGIN CTAB
M  V30 COUNTS 13 12 0 0 0
M  V30 BEGIN ATOM
M  V30 1 O 0.0 0.0 0.0 0
M  V30 2 C -1.299 0.744 0.0 0
M  V30 3 O -2.5981 -0.0118 0.0 0
M  V30 4 C -3.8972 0.7322 0.0 0
M  V30 5 C -5.1963 -0.0236 0.0 0
M  V30 6 C -6.4954 0.7204 0.0 0
M  V30 7 C -7.7945 -0.0354 0.0 0
M  V30 8 C -6.4954 2.2202 0.0 0
M  V30 9 C -9.0936 0.7085 0.0 0
M  V30 10 C -10.3927 -0.0472 0.0 0
M  V30 11 C -11.6918 0.6967 0.0 0
M  V30 12 C -12.9909 -0.059 0.0 0
M  V30 13 C -11.6918 2.1966 0.0 0
M  V30 END ATOM
M  V30 BEGIN BOND
M  V30 1 2 1 2
M  V30 2 1 2 3
M  V30 3 1 3 4
M  V30 4 1 4 5
M  V30 5 2 5 6
M  V30 6 1 6 7
M  V30 7 1 6 8
M  V30 8 1 7 9
M  V30 9 1 9 10
M  V30 10 2 10 11
M  V30 11 1 11 12
M  V30 12 1 11 13
M  V30 END BOND
M  V30 END CTAB
M  END
>  <Molecule Name>
Formic acid, geranyl ester

>  <Activity Label>
0

>  <SMILES>
CC(C)=CCC/C(\C)=C/COC=O

>  <Molecular Formula>
C11H18O2

>  <InChIKey>
FQMZVFJYMPNUCT-YRNVUSSQSA-N

>  <Repellency>
Inactive

>  <Reference DOI>
10.3390/toxics11100837

>  <Target Organism>
Not applied

$$$$
Compound 395
Actelion Java MolfileCreator 2.0

  0  0  0  0  0  0              0 V3000
M  V30 BEGIN CTAB
M  V30 COUNTS 13 12 0 0 0
M  V30 BEGIN ATOM
M  V30 1 O 0.0 0.0 0.0 0
M  V30 2 C 0.0 1.4971 0.0 0
M  V30 3 O -1.2967 2.2516 0.0 0
M  V30 4 C 1.2967 2.2516 0.0 0
M  V30 5 C -2.5934 1.4971 0.0 0
M  V30 6 C 2.5934 1.4971 0.0 0
M  V30 7 C -3.8902 2.2516 0.0 0
M  V30 8 C 3.8902 2.2516 0.0 0
M  V30 9 C -5.1869 1.4971 0.0 0
M  V30 10 C 5.1869 1.4971 0.0 0
M  V30 11 C -6.4837 2.2516 0.0 0
M  V30 12 C 6.4837 2.2516 0.0 0
M  V30 13 C -7.7804 1.4971 0.0 0
M  V30 END ATOM
M  V30 BEGIN BOND
M  V30 1 2 1 2
M  V30 2 1 2 3
M  V30 3 1 2 4
M  V30 4 1 3 5
M  V30 5 1 4 6
M  V30 6 1 5 7
M  V30 7 1 6 8
M  V30 8 1 7 9
M  V30 9 1 8 10
M  V30 10 1 9 11
M  V30 11 1 10 12
M  V30 12 1 11 13
M  V30 END BOND
M  V30 END CTAB
M  END
>  <Molecule Name>
Caproic acid, n-amyl ester

>  <Activity Label>
0

>  <SMILES>
CCCCCC(OCCCCC)=O

>  <Molecular Formula>
C11H22O2

>  <InChIKey>
WRFZKAGPPQGDDQ-UHFFFAOYSA-N

>  <Repellency>
Inactive

>  <Reference DOI>
10.3390/toxics11100837

>  <Target Organism>
Not applied

$$$$
Compound 396
Actelion Java MolfileCreator 2.0

  0  0  0  0  0  0              0 V3000
M  V30 BEGIN CTAB
M  V30 COUNTS 13 12 0 0 0
M  V30 BEGIN ATOM
M  V30 1 O 0.0 0.0 0.0 0
M  V30 2 C 0.0 1.4991 0.0 0
M  V30 3 O 1.2984 2.2428 0.0 0
M  V30 4 C -1.2984 2.2546 0.0 0
M  V30 5 C 2.5969 1.4873 0.0 0
M  V30 6 C -2.5969 3.01 0.0 0
M  V30 7 C 3.8954 2.231 0.0 0
M  V30 8 C -3.8954 3.7655 0.0 0
M  V30 9 C 3.8954 3.7301 0.0 0
M  V30 10 C -5.1938 3.0218 0.0 0
M  V30 11 C 3.8954 5.2292 0.0 0
M  V30 12 C -6.4923 3.7773 0.0 0
M  V30 13 C -7.7908 3.0218 0.0 0
M  V30 END ATOM
M  V30 BEGIN BOND
M  V30 1 2 1 2
M  V30 2 1 2 3
M  V30 3 1 2 4
M  V30 4 1 3 5
M  V30 5 3 4 6
M  V30 6 1 5 7
M  V30 7 1 6 8
M  V30 8 1 7 9
M  V30 9 1 8 10
M  V30 10 3 9 11
M  V30 11 1 10 12
M  V30 12 1 12 13
M  V30 END BOND
M  V30 END CTAB
M  END
>  <Molecule Name>
2-Heptynoic acid, 3-butyn-1-yl ester

>  <Activity Label>
0

>  <SMILES>
CCCCC#CC(OCCC#C)=O

>  <Molecular Formula>
C11H14O2

>  <InChIKey>
SSINJKCVPJNESH-UHFFFAOYSA-N

>  <Repellency>
Inactive

>  <Reference DOI>
10.3390/toxics11100837

>  <Target Organism>
Not applied

$$$$
Compound 397
Actelion Java MolfileCreator 2.0

  0  0  0  0  0  0              0 V3000
M  V30 BEGIN CTAB
M  V30 COUNTS 13 12 0 0 0
M  V30 BEGIN ATOM
M  V30 1 O 0.0 0.0 0.0 0
M  V30 2 C 0.0 -1.4996 0.0 0
M  V30 3 O -1.2988 -2.2553 0.0 0
M  V30 4 C 1.2988 -2.2553 0.0 0
M  V30 5 C -2.5977 -1.5114 0.0 0
M  V30 6 C 2.5977 -1.5114 0.0 0
M  V30 7 C -3.8966 -2.2671 0.0 0
M  V30 8 C 3.8966 -2.2671 0.0 0
M  V30 9 C 5.1954 -1.5232 0.0 0
M  V30 10 C 6.4943 -2.2789 0.0 0
M  V30 11 C 7.7932 -1.535 0.0 0
M  V30 12 C 9.0921 -2.2907 0.0 0
M  V30 13 C 10.3909 -1.5468 0.0 0
M  V30 END ATOM
M  V30 BEGIN BOND
M  V30 1 2 1 2
M  V30 2 1 2 3
M  V30 3 1 2 4
M  V30 4 1 3 5
M  V30 5 1 4 6
M  V30 6 1 5 7
M  V30 7 1 6 8
M  V30 8 1 8 9
M  V30 9 1 9 10
M  V30 10 1 10 11
M  V30 11 1 11 12
M  V30 12 1 12 13
M  V30 END BOND
M  V30 END CTAB
M  END
>  <Molecule Name>
Pelargonic acid, ethyl ester

>  <Activity Label>
0

>  <SMILES>
CCCCCCCCC(OCC)=O

>  <Molecular Formula>
C11H22O2

>  <InChIKey>
BYEVBITUADOIGY-UHFFFAOYSA-N

>  <Repellency>
Inactive

>  <Reference DOI>
10.3390/toxics11100837

>  <Target Organism>
Not applied

$$$$
Compound 398
Actelion Java MolfileCreator 2.0

  0  0  0  0  0  0              0 V3000
M  V30 BEGIN CTAB
M  V30 COUNTS 13 12 0 0 0
M  V30 BEGIN ATOM
M  V30 1 O 0.0 0.0 0.0 0
M  V30 2 C 0.0 1.4998 0.0 0
M  V30 3 O -1.299 2.2438 0.0 0
M  V30 4 C 1.299 2.2438 0.0 0
M  V30 5 C -2.5981 1.488 0.0 0 CFG=2
M  V30 6 C 2.5981 1.488 0.0 0
M  V30 7 C -3.8972 2.232 0.0 0
M  V30 8 C -2.5981 -0.0118 0.0 0
M  V30 9 C 3.8972 2.232 0.0 0
M  V30 10 C -5.1963 1.4762 0.0 0
M  V30 11 C 5.1963 1.4762 0.0 0
M  V30 12 C -6.4954 2.2202 0.0 0
M  V30 13 C -7.7945 1.4644 0.0 0
M  V30 END ATOM
M  V30 BEGIN BOND
M  V30 1 2 1 2
M  V30 2 1 2 3
M  V30 3 1 2 4
M  V30 4 1 3 5
M  V30 5 1 4 6
M  V30 6 1 5 7
M  V30 7 1 5 8 CFG=1
M  V30 8 1 6 9
M  V30 9 1 7 10
M  V30 10 1 9 11
M  V30 11 1 10 12
M  V30 12 1 12 13
M  V30 END BOND
M  V30 BEGIN COLLECTION
M  V30 MDLV30/STERAC1 ATOMS=(1 5)
M  V30 END COLLECTION
M  V30 END CTAB
M  END
>  <Molecule Name>
Valeric acid, 2-hexyl ester

>  <Activity Label>
0

>  <SMILES>
CCCCC(C)OC(CCCC)=O

>  <Molecular Formula>
C11H22O2

>  <InChIKey>
ZTFOJUWOBGLQSG-UHFFFAOYSA-N

>  <Repellency>
Inactive

>  <Reference DOI>
10.3390/toxics11100837

>  <Target Organism>
Not applied

$$$$
Compound 399
Actelion Java MolfileCreator 2.0

  0  0  0  0  0  0              0 V3000
M  V30 BEGIN CTAB
M  V30 COUNTS 13 12 0 0 0
M  V30 BEGIN ATOM
M  V30 1 O 0.0 0.0 0.0 0
M  V30 2 C -1.299 0.744 0.0 0
M  V30 3 C 1.299 0.744 0.0 0
M  V30 4 C -2.5981 -0.0118 0.0 0
M  V30 5 C 2.5981 -0.0118 0.0 0
M  V30 6 C -3.8972 0.7322 0.0 0
M  V30 7 C -2.5981 -1.5116 0.0 0
M  V30 8 O 2.5981 -1.5116 0.0 0
M  V30 9 C 3.8972 0.7322 0.0 0
M  V30 10 C -5.1963 -0.0236 0.0 0
M  V30 11 C -3.8972 -2.2675 0.0 0
M  V30 12 C -6.4954 0.7204 0.0 0
M  V30 13 C -7.7945 -0.0354 0.0 0
M  V30 END ATOM
M  V30 BEGIN BOND
M  V30 1 1 1 2
M  V30 2 1 1 3
M  V30 3 1 2 4
M  V30 4 1 3 5
M  V30 5 1 4 6
M  V30 6 1 4 7
M  V30 7 1 5 8
M  V30 8 1 5 9
M  V30 9 1 6 10
M  V30 10 1 7 11
M  V30 11 1 10 12
M  V30 12 1 12 13
M  V30 END BOND
M  V30 END CTAB
M  END
>  <Molecule Name>
1-(2-Ethylhexoxy)-2-propanol

>  <Activity Label>
0

>  <SMILES>
CCCCC(CC)COCC(C)O

>  <Molecular Formula>
C11H24O2

>  <InChIKey>
BTIMJGKRHNTHIU-UHFFFAOYSA-N

>  <Repellency>
Inactive

>  <Reference DOI>
10.3390/toxics11100837

>  <Target Organism>
Not applied

$$$$
Compound 400
Actelion Java MolfileCreator 2.0

  0  0  0  0  0  0              0 V3000
M  V30 BEGIN CTAB
M  V30 COUNTS 13 12 0 0 0
M  V30 BEGIN ATOM
M  V30 1 Cl 0.0 0.0 0.0 0
M  V30 2 C -1.299 -0.7558 0.0 0
M  V30 3 C -2.5981 -0.0118 0.0 0
M  V30 4 O -2.5981 1.488 0.0 0
M  V30 5 O -3.8972 -0.7676 0.0 0
M  V30 6 C -5.1963 -0.0236 0.0 0
M  V30 7 C -6.4954 -0.7794 0.0 0 CFG=2
M  V30 8 C -7.7945 -0.0354 0.0 0
M  V30 9 C -6.4954 -2.2793 0.0 0
M  V30 10 C -9.0936 -0.7912 0.0 0
M  V30 11 C -5.1963 -3.0233 0.0 0
M  V30 12 C -10.3927 -0.0472 0.0 0
M  V30 13 C -11.6918 -0.803 0.0 0
M  V30 END ATOM
M  V30 BEGIN BOND
M  V30 1 1 1 2
M  V30 2 1 2 3
M  V30 3 2 3 4
M  V30 4 1 3 5
M  V30 5 1 5 6
M  V30 6 1 7 6 CFG=1
M  V30 7 1 7 8
M  V30 8 1 7 9
M  V30 9 1 8 10
M  V30 10 1 9 11
M  V30 11 1 10 12
M  V30 12 1 12 13
M  V30 END BOND
M  V30 BEGIN COLLECTION
M  V30 MDLV30/STERAC1 ATOMS=(1 7)
M  V30 END COLLECTION
M  V30 END CTAB
M  END
>  <Molecule Name>
Chloroacetic acid, 2-ethylhexyl ester

>  <Activity Label>
0

>  <SMILES>
CCCCC(CC)COC(CCl)=O

>  <Molecular Formula>
C10H19O2Cl

>  <InChIKey>
QZBQQHUYQKGPLQ-UHFFFAOYSA-N

>  <Repellency>
Inactive

>  <Reference DOI>
10.3390/toxics11100837

>  <Target Organism>
Not applied

$$$$
Compound 401
Actelion Java MolfileCreator 2.0

  0  0  0  0  0  0              0 V3000
M  V30 BEGIN CTAB
M  V30 COUNTS 13 12 0 0 0
M  V30 BEGIN ATOM
M  V30 1 Cl 0.0 0.0 0.0 0
M  V30 2 C -0.7544 -1.2967 0.0 0
M  V30 3 Cl 0.5422 -2.0512 0.0 0
M  V30 4 Cl -1.5089 -2.5934 0.0 0
M  V30 5 C -2.0512 -0.5422 0.0 0
M  V30 6 O -2.0512 0.9548 0.0 0
M  V30 7 O -3.3479 -1.2967 0.0 0
M  V30 8 C -4.6447 -0.5422 0.0 0
M  V30 9 C -5.9414 -1.2967 0.0 0
M  V30 10 C -7.2382 -0.5422 0.0 0
M  V30 11 C -8.5349 -1.2967 0.0 0
M  V30 12 C -9.8316 -0.5422 0.0 0
M  V30 13 C -11.1284 -1.2967 0.0 0
M  V30 END ATOM
M  V30 BEGIN BOND
M  V30 1 1 1 2
M  V30 2 1 2 3
M  V30 3 1 2 4
M  V30 4 1 2 5
M  V30 5 2 5 6
M  V30 6 1 5 7
M  V30 7 1 7 8
M  V30 8 1 8 9
M  V30 9 1 9 10
M  V30 10 1 10 11
M  V30 11 1 11 12
M  V30 12 1 12 13
M  V30 END BOND
M  V30 END CTAB
M  END
>  <Molecule Name>
Trichloroacetic acid, hexyl ester

>  <Activity Label>
0

>  <SMILES>
CCCCCCOC(C(Cl)(Cl)Cl)=O

>  <Molecular Formula>
C8H13O2Cl3

>  <InChIKey>
UJGLOWVVUOBEJU-UHFFFAOYSA-N

>  <Repellency>
Inactive

>  <Reference DOI>
10.3390/toxics11100837

>  <Target Organism>
Not applied

$$$$
Compound 402
Actelion Java MolfileCreator 2.0

  0  0  0  0  0  0              0 V3000
M  V30 BEGIN CTAB
M  V30 COUNTS 13 12 0 0 0
M  V30 BEGIN ATOM
M  V30 1 O 0.0 0.0 0.0 0
M  V30 2 C 1.3004 0.7475 0.0 0
M  V30 3 C 2.6009 0.0 0.0 0
M  V30 4 C 3.9014 0.7475 0.0 0
M  V30 5 C 5.2018 0.0 0.0 0
M  V30 6 C 6.5023 0.7475 0.0 0
M  V30 7 C 7.8028 0.0 0.0 0
M  V30 8 C 9.1032 0.7475 0.0 0
M  V30 9 C 10.4037 0.0 0.0 0
M  V30 10 C 11.7042 0.7475 0.0 0
M  V30 11 C 13.0047 0.0 0.0 0
M  V30 12 C 14.3051 0.7475 0.0 0
M  V30 13 C 15.6056 0.0 0.0 0
M  V30 END ATOM
M  V30 BEGIN BOND
M  V30 1 1 1 2
M  V30 2 1 2 3
M  V30 3 1 3 4
M  V30 4 1 4 5
M  V30 5 1 5 6
M  V30 6 1 6 7
M  V30 7 1 7 8
M  V30 8 1 8 9
M  V30 9 1 9 10
M  V30 10 1 10 11
M  V30 11 1 11 12
M  V30 12 1 12 13
M  V30 END BOND
M  V30 END CTAB
M  END
>  <Molecule Name>
Lauryl alcohol

>  <Activity Label>
0

>  <SMILES>
CCCCCCCCCCCCO

>  <Molecular Formula>
C12H26O

>  <InChIKey>
LQZZUXJYWNFBMV-UHFFFAOYSA-N

>  <Repellency>
Inactive

>  <Reference DOI>
10.3390/toxics11100837

>  <Target Organism>
Not applied

$$$$
Compound 403
Actelion Java MolfileCreator 2.0

  0  0  0  0  0  0              0 V3000
M  V30 BEGIN CTAB
M  V30 COUNTS 13 12 0 0 0
M  V30 BEGIN ATOM
M  V30 1 O 0.0 0.0 0.0 0
M  V30 2 C 1.3004 0.7475 0.0 0
M  V30 3 C -1.3004 0.7475 0.0 0
M  V30 4 C 2.6009 0.0 0.0 0
M  V30 5 C -2.6009 0.0 0.0 0
M  V30 6 C 3.9014 0.7475 0.0 0
M  V30 7 C -3.9014 0.7475 0.0 0
M  V30 8 C 5.2018 0.0 0.0 0
M  V30 9 C -5.2018 0.0 0.0 0
M  V30 10 C 6.5023 0.7475 0.0 0
M  V30 11 C -6.5023 0.7475 0.0 0
M  V30 12 C 7.8028 0.0 0.0 0
M  V30 13 C -7.8028 0.0 0.0 0
M  V30 END ATOM
M  V30 BEGIN BOND
M  V30 1 1 1 2
M  V30 2 1 1 3
M  V30 3 1 2 4
M  V30 4 1 3 5
M  V30 5 1 4 6
M  V30 6 1 5 7
M  V30 7 1 6 8
M  V30 8 1 7 9
M  V30 9 1 8 10
M  V30 10 1 9 11
M  V30 11 1 10 12
M  V30 12 1 11 13
M  V30 END BOND
M  V30 END CTAB
M  END
>  <Molecule Name>
Dihexyl ether

>  <Activity Label>
0

>  <SMILES>
CCCCCCOCCCCCC

>  <Molecular Formula>
C12H26O

>  <InChIKey>
BPIUIOXAFBGMNB-UHFFFAOYSA-N

>  <Repellency>
Inactive

>  <Reference DOI>
10.3390/toxics11100837

>  <Target Organism>
Not applied

$$$$
Compound 404
Actelion Java MolfileCreator 2.0

  0  0  0  0  0  0              0 V3000
M  V30 BEGIN CTAB
M  V30 COUNTS 13 12 0 0 0
M  V30 BEGIN ATOM
M  V30 1 O 0.0 0.0 0.0 0
M  V30 2 C 0.0 1.5001 0.0 0
M  V30 3 O 1.2993 2.2442 0.0 0
M  V30 4 C -1.2993 2.2442 0.0 0
M  V30 5 C 2.5986 1.4883 0.0 0
M  V30 6 O -1.2993 3.7444 0.0 0
M  V30 7 C -2.5986 1.4883 0.0 0
M  V30 8 C 3.8979 2.2324 0.0 0
M  V30 9 C -3.8979 2.2324 0.0 0
M  V30 10 O -3.8979 3.7325 0.0 0
M  V30 11 O -5.1972 1.4765 0.0 0
M  V30 12 C -6.4966 2.2206 0.0 0
M  V30 13 C -7.7959 1.4646 0.0 0
M  V30 END ATOM
M  V30 BEGIN BOND
M  V30 1 2 1 2
M  V30 2 1 2 3
M  V30 3 1 2 4
M  V30 4 1 3 5
M  V30 5 2 4 6
M  V30 6 1 4 7
M  V30 7 1 5 8
M  V30 8 1 7 9
M  V30 9 2 9 10
M  V30 10 1 9 11
M  V30 11 1 11 12
M  V30 12 1 12 13
M  V30 END BOND
M  V30 END CTAB
M  END
>  <Molecule Name>
Ethoxalylacetic acid, ethyl ester

>  <Activity Label>
0

>  <SMILES>
CCOC(CC(C(OCC)=O)=O)=O

>  <Molecular Formula>
C8H12O5

>  <InChIKey>
JDXYSCUOABNLIR-UHFFFAOYSA-N

>  <Repellency>
Inactive

>  <Reference DOI>
10.3390/toxics11100837

>  <Target Organism>
Not applied

$$$$
Compound 405
Actelion Java MolfileCreator 2.0

  0  0  0  0  0  0              0 V3000
M  V30 BEGIN CTAB
M  V30 COUNTS 13 12 0 0 0
M  V30 BEGIN ATOM
M  V30 1 O 0.0 0.0 0.0 0
M  V30 2 C 0.0 -1.4996 0.0 0
M  V30 3 O -1.2988 -2.2553 0.0 0
M  V30 4 O 1.2988 -2.2553 0.0 0
M  V30 5 C -2.5977 -1.5114 0.0 0 CFG=2
M  V30 6 C 2.5977 -1.5114 0.0 0
M  V30 7 C -3.8966 -2.2671 0.0 0
M  V30 8 C -2.5977 -0.0118 0.0 0
M  V30 9 C 3.8966 -2.2671 0.0 0
M  V30 10 O -3.8966 -3.7667 0.0 0
M  V30 11 O -5.1955 -1.5232 0.0 0
M  V30 12 C 5.1955 -1.5232 0.0 0
M  V30 13 C -6.4944 -2.2789 0.0 0
M  V30 END ATOM
M  V30 BEGIN BOND
M  V30 1 2 1 2
M  V30 2 1 2 3
M  V30 3 1 2 4
M  V30 4 1 3 5
M  V30 5 1 4 6
M  V30 6 1 5 7
M  V30 7 1 5 8 CFG=3
M  V30 8 1 6 9
M  V30 9 2 7 10
M  V30 10 1 7 11
M  V30 11 1 9 12
M  V30 12 1 11 13
M  V30 END BOND
M  V30 BEGIN COLLECTION
M  V30 MDLV30/STERAC1 ATOMS=(1 5)
M  V30 END COLLECTION
M  V30 END CTAB
M  END
>  <Molecule Name>
Carbonic acid, n-propyl alpha-carbomethoxyethyl ester

>  <Activity Label>
0

>  <SMILES>
CCCOC(OC(C)C(OC)=O)=O

>  <Molecular Formula>
C8H14O5

>  <InChIKey>
OYZTVYAILJYVFG-UHFFFAOYSA-N

>  <Repellency>
Inactive

>  <Reference DOI>
10.3390/toxics11100837

>  <Target Organism>
Not applied

$$$$
Compound 406
Actelion Java MolfileCreator 2.0

  0  0  0  0  0  0              0 V3000
M  V30 BEGIN CTAB
M  V30 COUNTS 13 12 0 0 0
M  V30 BEGIN ATOM
M  V30 1 O 0.0 0.0 0.0 0
M  V30 2 C -1.3004 0.7475 0.0 0
M  V30 3 C 1.3004 0.7475 0.0 0
M  V30 4 C -2.6009 0.0 0.0 0
M  V30 5 C 2.6009 0.0 0.0 0
M  V30 6 O -3.9014 0.7475 0.0 0
M  V30 7 O 3.9014 0.7475 0.0 0
M  V30 8 C -5.2018 0.0 0.0 0
M  V30 9 C 5.2018 0.0 0.0 0
M  V30 10 C -6.5023 0.7475 0.0 0
M  V30 11 C 6.5023 0.7475 0.0 0
M  V30 12 O -7.8028 0.0 0.0 0
M  V30 13 O 7.8028 0.0 0.0 0
M  V30 END ATOM
M  V30 BEGIN BOND
M  V30 1 1 1 2
M  V30 2 1 1 3
M  V30 3 1 2 4
M  V30 4 1 3 5
M  V30 5 1 4 6
M  V30 6 1 5 7
M  V30 7 1 6 8
M  V30 8 1 7 9
M  V30 9 1 8 10
M  V30 10 1 9 11
M  V30 11 1 10 12
M  V30 12 1 11 13
M  V30 END BOND
M  V30 END CTAB
M  END
>  <Molecule Name>
Tetraethylene glycol

>  <Activity Label>
0

>  <SMILES>
OCCOCCOCCOCCO

>  <Molecular Formula>
C8H18O5

>  <InChIKey>
UWHCKJMYHZGTIT-UHFFFAOYSA-N

>  <Repellency>
Inactive

>  <Reference DOI>
10.3390/toxics11100837

>  <Target Organism>
Not applied

$$$$
Compound 407
Actelion Java MolfileCreator 2.0

  0  0  0  0  0  0              0 V3000
M  V30 BEGIN CTAB
M  V30 COUNTS 13 12 0 0 0
M  V30 BEGIN ATOM
M  V30 1 O 0.0 0.0 0.0 0
M  V30 2 C 0.0 -1.4998 0.0 0
M  V30 3 O -1.299 -2.2557 0.0 0
M  V30 4 C 1.299 -2.2557 0.0 0 CFG=2
M  V30 5 C -2.5981 -1.5116 0.0 0
M  V30 6 C 1.299 -3.7555 0.0 0
M  V30 7 C 2.5981 -1.5116 0.0 0
M  V30 8 C -3.8972 -2.2675 0.0 0
M  V30 9 O 0.0 -4.4996 0.0 0
M  V30 10 C 2.5981 -4.4996 0.0 0
M  V30 11 C 3.8972 -2.2675 0.0 0
M  V30 12 C 5.1963 -1.5234 0.0 0
M  V30 13 C 6.4954 -2.2793 0.0 0
M  V30 END ATOM
M  V30 BEGIN BOND
M  V30 1 2 1 2
M  V30 2 1 2 3
M  V30 3 1 2 4
M  V30 4 1 3 5
M  V30 5 1 4 6
M  V30 6 1 4 7 CFG=1
M  V30 7 1 5 8
M  V30 8 2 6 9
M  V30 9 1 6 10
M  V30 10 1 7 11
M  V30 11 1 11 12
M  V30 12 1 12 13
M  V30 END BOND
M  V30 BEGIN COLLECTION
M  V30 MDLV30/STERAC1 ATOMS=(1 4)
M  V30 END COLLECTION
M  V30 END CTAB
M  END
>  <Molecule Name>
2-butylacetoacetic acid, ethyl ester

>  <Activity Label>
0

>  <SMILES>
CCCCC(C(C)=O)C(OCC)=O

>  <Molecular Formula>
C10H18O3

>  <InChIKey>
ZTOQBHVLCJERBS-UHFFFAOYSA-N

>  <Repellency>
Inactive

>  <Reference DOI>
10.3390/toxics11100837

>  <Target Organism>
Not applied

$$$$
Compound 408
Actelion Java MolfileCreator 2.0

  0  0  0  0  0  0              0 V3000
M  V30 BEGIN CTAB
M  V30 COUNTS 13 12 0 0 0
M  V30 BEGIN ATOM
M  V30 1 O 0.0 0.0 0.0 0
M  V30 2 C 0.0 -1.4996 0.0 0
M  V30 3 O -1.2988 -2.2553 0.0 0
M  V30 4 C 1.2988 -2.2553 0.0 0
M  V30 5 C -2.5977 -1.5114 0.0 0
M  V30 6 O 2.5977 -1.5114 0.0 0
M  V30 7 C -3.8966 -2.2671 0.0 0
M  V30 8 C 3.8966 -2.2671 0.0 0
M  V30 9 C -5.1954 -1.5232 0.0 0
M  V30 10 C 5.1954 -1.5232 0.0 0
M  V30 11 C -6.4943 -2.2789 0.0 0
M  V30 12 C 6.4943 -2.2789 0.0 0
M  V30 13 C 7.7932 -1.535 0.0 0
M  V30 END ATOM
M  V30 BEGIN BOND
M  V30 1 2 1 2
M  V30 2 1 2 3
M  V30 3 1 2 4
M  V30 4 1 3 5
M  V30 5 1 4 6
M  V30 6 1 5 7
M  V30 7 1 6 8
M  V30 8 1 7 9
M  V30 9 1 8 10
M  V30 10 1 9 11
M  V30 11 1 10 12
M  V30 12 1 12 13
M  V30 END BOND
M  V30 END CTAB
M  END
>  <Molecule Name>
Butoxyacetic acid, n-butyl ester

>  <Activity Label>
0

>  <SMILES>
CCCCOCC(OCCCC)=O

>  <Molecular Formula>
C10H20O3

>  <InChIKey>
URBZEXMYYYABCQ-UHFFFAOYSA-N

>  <Repellency>
Inactive

>  <Reference DOI>
10.3390/toxics11100837

>  <Target Organism>
Not applied

$$$$
Compound 409
Actelion Java MolfileCreator 2.0

  0  0  0  0  0  0              0 V3000
M  V30 BEGIN CTAB
M  V30 COUNTS 13 12 0 0 0
M  V30 BEGIN ATOM
M  V30 1 O 0.0 0.0 0.0 0
M  V30 2 C 0.0 -1.4998 0.0 0
M  V30 3 O -1.299 -2.2557 0.0 0
M  V30 4 C 1.299 -2.2557 0.0 0
M  V30 5 C -2.5981 -1.5116 0.0 0
M  V30 6 C 2.5981 -1.5116 0.0 0
M  V30 7 C -3.8972 -2.2675 0.0 0
M  V30 8 O 3.8972 -2.2675 0.0 0
M  V30 9 C -3.8972 -3.7673 0.0 0
M  V30 10 C -5.1963 -1.5234 0.0 0
M  V30 11 C 5.1963 -1.5234 0.0 0
M  V30 12 C -2.5981 -4.5114 0.0 0
M  V30 13 C -6.4954 -2.2793 0.0 0
M  V30 END ATOM
M  V30 BEGIN BOND
M  V30 1 2 1 2
M  V30 2 1 2 3
M  V30 3 1 2 4
M  V30 4 1 3 5
M  V30 5 1 4 6
M  V30 6 1 5 7
M  V30 7 1 6 8
M  V30 8 1 7 9
M  V30 9 1 7 10
M  V30 10 1 8 11
M  V30 11 1 9 12
M  V30 12 1 10 13
M  V30 END BOND
M  V30 END CTAB
M  END
>  <Molecule Name>
beta-Methoxypropionic acid, 2-ethylbutyl ester

>  <Activity Label>
0

>  <SMILES>
CCC(CC)COC(CCOC)=O

>  <Molecular Formula>
C10H20O3

>  <InChIKey>
AALYDECUGCSHKY-UHFFFAOYSA-N

>  <Repellency>
Inactive

>  <Reference DOI>
10.3390/toxics11100837

>  <Target Organism>
Not applied

$$$$
Compound 410
Actelion Java MolfileCreator 2.0

  0  0  0  0  0  0              0 V3000
M  V30 BEGIN CTAB
M  V30 COUNTS 13 12 0 0 0
M  V30 BEGIN ATOM
M  V30 1 O 0.0 0.0 0.0 0
M  V30 2 C -1.2993 0.7441 0.0 0
M  V30 3 C 1.2993 0.7441 0.0 0
M  V30 4 O -1.2993 2.2442 0.0 0
M  V30 5 C -2.5986 -0.0118 0.0 0
M  V30 6 C 2.5986 -0.0118 0.0 0
M  V30 7 C 0.0 2.9884 0.0 0
M  V30 8 C -3.8979 0.7323 0.0 0 CFG=1
M  V30 9 C 0.0 4.4885 0.0 0
M  V30 10 O -5.1972 -0.0236 0.0 0
M  V30 11 C -3.8979 2.2324 0.0 0
M  V30 12 C -6.4966 0.7205 0.0 0
M  V30 13 C -7.7959 -0.0354 0.0 0
M  V30 END ATOM
M  V30 BEGIN BOND
M  V30 1 1 1 2
M  V30 2 1 1 3
M  V30 3 1 2 4
M  V30 4 1 2 5
M  V30 5 1 3 6
M  V30 6 1 4 7
M  V30 7 1 5 8
M  V30 8 1 7 9
M  V30 9 1 8 10
M  V30 10 1 8 11 CFG=1
M  V30 11 1 10 12
M  V30 12 1 12 13
M  V30 END BOND
M  V30 BEGIN COLLECTION
M  V30 MDLV30/STERAC1 ATOMS=(1 8)
M  V30 END COLLECTION
M  V30 END CTAB
M  END
>  <Molecule Name>
1,1,3-Triethoxybutane

>  <Activity Label>
0

>  <SMILES>
CCOC(C)CC(OCC)OCC

>  <Molecular Formula>
C10H22O3

>  <InChIKey>
MDIBXLWYZGZAKL-UHFFFAOYSA-N

>  <Repellency>
Inactive

>  <Reference DOI>
10.3390/toxics11100837

>  <Target Organism>
Not applied

$$$$
Compound 411
Actelion Java MolfileCreator 2.0

  0  0  0  0  0  0              0 V3000
M  V30 BEGIN CTAB
M  V30 COUNTS 13 12 0 0 0
M  V30 BEGIN ATOM
M  V30 1 Cl 0.0 0.0 0.0 0
M  V30 2 C -1.2969 0.7546 0.0 0 CFG=2
M  V30 3 C -2.5939 0.0 0.0 0
M  V30 4 C -1.2969 2.252 0.0 0
M  V30 5 O -2.5939 -1.4974 0.0 0
M  V30 6 O -3.8909 0.7546 0.0 0
M  V30 7 C -5.1878 0.0 0.0 0
M  V30 8 C -6.4848 0.7546 0.0 0
M  V30 9 O -7.7818 0.0 0.0 0
M  V30 10 C -9.0787 0.7546 0.0 0
M  V30 11 C -10.3757 0.0 0.0 0
M  V30 12 C -11.6727 0.7546 0.0 0
M  V30 13 C -12.9697 0.0 0.0 0
M  V30 END ATOM
M  V30 BEGIN BOND
M  V30 1 1 2 1 CFG=3
M  V30 2 1 2 3
M  V30 3 1 2 4
M  V30 4 2 3 5
M  V30 5 1 3 6
M  V30 6 1 6 7
M  V30 7 1 7 8
M  V30 8 1 8 9
M  V30 9 1 9 10
M  V30 10 1 10 11
M  V30 11 1 11 12
M  V30 12 1 12 13
M  V30 END BOND
M  V30 BEGIN COLLECTION
M  V30 MDLV30/STERAC1 ATOMS=(1 2)
M  V30 END COLLECTION
M  V30 END CTAB
M  END
>  <Molecule Name>
alpha-Chloropropionic acid, 2-butoxyethyl ester

>  <Activity Label>
0

>  <SMILES>
CCCCOCCOC(C(C)Cl)=O

>  <Molecular Formula>
C9H17O3Cl

>  <InChIKey>
XRATVFQSBIVRAJ-UHFFFAOYSA-N

>  <Repellency>
Inactive

>  <Reference DOI>
10.3390/toxics11100837

>  <Target Organism>
Not applied

$$$$
Compound 412
Actelion Java MolfileCreator 2.0

  0  0  0  0  0  0              0 V3000
M  V30 BEGIN CTAB
M  V30 COUNTS 13 12 0 0 0
M  V30 BEGIN ATOM
M  V30 1 Cl 0.0 0.0 0.0 0
M  V30 2 C -1.299 0.744 0.0 0
M  V30 3 C -2.5981 -0.0118 0.0 0
M  V30 4 O -3.8972 0.7322 0.0 0
M  V30 5 P -5.1963 -0.0236 0.0 0
M  V30 6 O -5.1963 1.4762 0.0 0
M  V30 7 O -6.4954 0.7204 0.0 0
M  V30 8 C -5.1963 -1.5234 0.0 0
M  V30 9 C -7.7945 -0.0354 0.0 0
M  V30 10 C -6.4954 -2.2793 0.0 0
M  V30 11 C -3.8972 -2.2675 0.0 0
M  V30 12 C -9.0936 0.7085 0.0 0
M  V30 13 Cl -10.3927 -0.0472 0.0 0
M  V30 END ATOM
M  V30 BEGIN BOND
M  V30 1 1 1 2
M  V30 2 1 2 3
M  V30 3 1 3 4
M  V30 4 1 4 5
M  V30 5 2 5 6
M  V30 6 1 5 7
M  V30 7 1 5 8
M  V30 8 1 7 9
M  V30 9 1 8 10
M  V30 10 1 8 11
M  V30 11 1 9 12
M  V30 12 1 12 13
M  V30 END BOND
M  V30 END CTAB
M  END
>  <Molecule Name>
iso-Propylphosphonic acid, bis-(2-chloroethyl) ester

>  <Activity Label>
0

>  <SMILES>
CC(C)P(OCCCl)(OCCCl)=O

>  <Molecular Formula>
C7H15O3Cl2P

>  <InChIKey>
ZVYYUNQJRDMEQD-UHFFFAOYSA-N

>  <Repellency>
Inactive

>  <Reference DOI>
10.3390/toxics11100837

>  <Target Organism>
Not applied

$$$$
Compound 413
Actelion Java MolfileCreator 2.0

  0  0  0  0  0  0              0 V3000
M  V30 BEGIN CTAB
M  V30 COUNTS 13 12 0 0 0
M  V30 BEGIN ATOM
M  V30 1 O 0.0 0.0 0.0 0
M  V30 2 C 1.2995 0.7442 0.0 0
M  V30 3 C -1.2995 0.7442 0.0 0
M  V30 4 C 2.599 -0.0118 0.0 0
M  V30 5 C -2.599 -0.0118 0.0 0
M  V30 6 C 3.8985 0.7324 0.0 0
M  V30 7 C -3.8985 0.7324 0.0 0
M  V30 8 N 5.198 1.4767 0.0 0
M  V30 9 O -5.198 -0.0236 0.0 0
M  V30 10 C -6.4976 0.7206 0.0 0
M  V30 11 C -7.7971 -0.0354 0.0 0
M  V30 12 C -7.7971 -1.5358 0.0 0
M  V30 13 N -7.7971 -3.0361 0.0 0
M  V30 END ATOM
M  V30 BEGIN BOND
M  V30 1 1 1 2
M  V30 2 1 1 3
M  V30 3 1 2 4
M  V30 4 1 3 5
M  V30 5 1 4 6
M  V30 6 1 5 7
M  V30 7 3 6 8
M  V30 8 1 7 9
M  V30 9 1 9 10
M  V30 10 1 10 11
M  V30 11 1 11 12
M  V30 12 3 12 13
M  V30 END BOND
M  V30 END CTAB
M  END
>  <Molecule Name>
Trimethylene glycol bis-(beta-cyanoethyl) ether

>  <Activity Label>
0

>  <SMILES>
N#CCCOCCCOCCC#N

>  <Molecular Formula>
C9H14N2O2

>  <InChIKey>
PPHVNJZVJZMSRM-UHFFFAOYSA-N

>  <Repellency>
Inactive

>  <Reference DOI>
10.3390/toxics11100837

>  <Target Organism>
Not applied

$$$$
Compound 414
Actelion Java MolfileCreator 2.0

  0  0  0  0  0  0              0 V3000
M  V30 BEGIN CTAB
M  V30 COUNTS 13 12 0 0 0
M  V30 BEGIN ATOM
M  V30 1 N 0.0 0.0 0.0 0
M  V30 2 C -1.3004 -0.7475 0.0 0
M  V30 3 C -2.6009 -1.495 0.0 0
M  V30 4 C -3.9014 -0.7475 0.0 0
M  V30 5 C -5.2018 -1.495 0.0 0
M  V30 6 C -6.5023 -0.7475 0.0 0
M  V30 7 C -7.8028 -1.495 0.0 0
M  V30 8 C -9.1032 -0.7475 0.0 0
M  V30 9 C -10.4037 -1.495 0.0 0
M  V30 10 C -11.7042 -0.7475 0.0 0
M  V30 11 C -13.0047 -1.495 0.0 0
M  V30 12 C -14.3051 -0.7475 0.0 0
M  V30 13 C -15.6056 -1.495 0.0 0
M  V30 END ATOM
M  V30 BEGIN BOND
M  V30 1 3 1 2
M  V30 2 1 2 3
M  V30 3 1 3 4
M  V30 4 1 4 5
M  V30 5 1 5 6
M  V30 6 1 6 7
M  V30 7 1 7 8
M  V30 8 1 8 9
M  V30 9 1 9 10
M  V30 10 1 10 11
M  V30 11 1 11 12
M  V30 12 1 12 13
M  V30 END BOND
M  V30 END CTAB
M  END
>  <Molecule Name>
Lauronitrile

>  <Activity Label>
0

>  <SMILES>
CCCCCCCCCCCC#N

>  <Molecular Formula>
C12H23N

>  <InChIKey>
VXCUURYYWGCLIH-UHFFFAOYSA-N

>  <Repellency>
Inactive

>  <Reference DOI>
10.3390/toxics11100837

>  <Target Organism>
Not applied

$$$$
Compound 415
Actelion Java MolfileCreator 2.0

  0  0  0  0  0  0              0 V3000
M  V30 BEGIN CTAB
M  V30 COUNTS 13 12 0 0 0
M  V30 BEGIN ATOM
M  V30 1 O 0.0 0.0 0.0 0
M  V30 2 C 0.0 -1.4998 0.0 0
M  V30 3 N 1.2991 -2.2557 0.0 0
M  V30 4 C -1.2991 -2.2557 0.0 0
M  V30 5 C 2.5982 -1.5117 0.0 0
M  V30 6 C 1.2991 -3.7556 0.0 0
M  V30 7 C -2.5982 -1.5117 0.0 0
M  V30 8 C 3.8973 -2.2675 0.0 0
M  V30 9 C 0.0 -4.4996 0.0 0
M  V30 10 O -2.5982 -0.0118 0.0 0
M  V30 11 C -3.8973 -2.2675 0.0 0
M  V30 12 C 5.1964 -1.5235 0.0 0
M  V30 13 C 0.0 -5.9995 0.0 0
M  V30 END ATOM
M  V30 BEGIN BOND
M  V30 1 2 1 2
M  V30 2 1 2 3
M  V30 3 1 2 4
M  V30 4 1 3 5
M  V30 5 1 3 6
M  V30 6 1 4 7
M  V30 7 1 5 8
M  V30 8 1 6 9
M  V30 9 2 7 10
M  V30 10 1 7 11
M  V30 11 1 8 12
M  V30 12 1 9 13
M  V30 END BOND
M  V30 END CTAB
M  END
>  <Molecule Name>
N,N-Dipropylacetoacetamide

>  <Activity Label>
0

>  <SMILES>
CCCN(CCC)C(CC(C)=O)=O

>  <Molecular Formula>
C10H19NO2

>  <InChIKey>
MDGLAZHWDSJEJP-UHFFFAOYSA-N

>  <Repellency>
Inactive

>  <Reference DOI>
10.3390/toxics11100837

>  <Target Organism>
Not applied

$$$$
Compound 416
Actelion Java MolfileCreator 2.0

  0  0  0  0  0  0              0 V3000
M  V30 BEGIN CTAB
M  V30 COUNTS 13 12 0 0 0
M  V30 BEGIN ATOM
M  V30 1 O 0.0 0.0 0.0 0
M  V30 2 N 1.2988 0.7438 0.0 0
M  V30 3 C 2.5977 -0.0118 0.0 0
M  V30 4 C 3.8966 0.732 0.0 0
M  V30 5 C 5.1954 -0.0236 0.0 0 CFG=2
M  V30 6 C 6.4943 0.7202 0.0 0
M  V30 7 C 5.1954 -1.5232 0.0 0
M  V30 8 C 7.7932 -0.0354 0.0 0
M  V30 9 C 9.0921 0.7084 0.0 0
M  V30 10 C 10.3909 -0.0472 0.0 0
M  V30 11 O 9.647 -1.3461 0.0 0
M  V30 12 C 11.1466 1.2516 0.0 0
M  V30 13 C 11.6898 -0.8029 0.0 0
M  V30 END ATOM
M  V30 BEGIN BOND
M  V30 1 1 1 2
M  V30 2 2 2 3 CFG=2
M  V30 3 1 3 4
M  V30 4 1 4 5
M  V30 5 1 5 6
M  V30 6 1 5 7 CFG=3
M  V30 7 1 6 8
M  V30 8 1 8 9
M  V30 9 1 9 10
M  V30 10 1 10 11
M  V30 11 1 10 12
M  V30 12 1 10 13
M  V30 END BOND
M  V30 BEGIN COLLECTION
M  V30 MDLV30/STERAC1 ATOMS=(1 5)
M  V30 END COLLECTION
M  V30 END CTAB
M  END
>  <Molecule Name>
Hydroxycitronellal oxime

>  <Activity Label>
0

>  <SMILES>
CC(CCCC(C)(C)O)CC=NO

>  <Molecular Formula>
C10H21NO2

>  <InChIKey>
IFWXPWFBBKIGIM-UHFFFAOYSA-N

>  <Repellency>
Inactive

>  <Reference DOI>
10.3390/toxics11100837

>  <Target Organism>
Not applied

$$$$
Compound 417
Actelion Java MolfileCreator 2.0

  0  0  0  0  0  0              0 V3000
M  V30 BEGIN CTAB
M  V30 COUNTS 13 12 0 0 0
M  V30 BEGIN ATOM
M  V30 1 O 0.0 0.0 0.0 0
M  V30 2 C 1.299 0.7558 0.0 0
M  V30 3 C 1.299 2.2557 0.0 0 CFG=2
M  V30 4 C 0.0 2.9997 0.0 0
M  V30 5 C 2.5981 2.9997 0.0 0
M  V30 6 C 1.299 3.7555 0.0 0
M  V30 7 C -1.299 2.2438 0.0 0
M  V30 8 C 3.8972 2.2438 0.0 0
M  V30 9 C 0.0 4.5114 0.0 0
M  V30 10 C -2.5981 2.9879 0.0 0
M  V30 11 C 5.1963 2.9879 0.0 0
M  V30 12 C -3.8972 2.232 0.0 0
M  V30 13 N 6.4954 3.7319 0.0 0
M  V30 END ATOM
M  V30 BEGIN BOND
M  V30 1 2 1 2
M  V30 2 1 2 3
M  V30 3 1 3 4
M  V30 4 1 3 5
M  V30 5 1 3 6 CFG=1
M  V30 6 2 4 7 CFG=2
M  V30 7 1 5 8
M  V30 8 1 6 9
M  V30 9 1 7 10
M  V30 10 1 8 11
M  V30 11 1 10 12
M  V30 12 3 11 13
M  V30 END BOND
M  V30 BEGIN COLLECTION
M  V30 MDLV30/STERAC1 ATOMS=(1 3)
M  V30 END COLLECTION
M  V30 END CTAB
M  END
>  <Molecule Name>
2-(beta-Cyanoethyl)-2-ethyl-3-hexenal

>  <Activity Label>
0

>  <SMILES>
CCC(CCC#N)(C=CCC)C=O

>  <Molecular Formula>
C11H17NO

>  <InChIKey>
PUICHTSLQAPZSJ-UHFFFAOYSA-N

>  <Repellency>
Inactive

>  <Reference DOI>
10.3390/toxics11100837

>  <Target Organism>
Not applied

$$$$
Compound 418
Actelion Java MolfileCreator 2.0

  0  0  0  0  0  0              0 V3000
M  V30 BEGIN CTAB
M  V30 COUNTS 13 12 0 0 0
M  V30 BEGIN ATOM
M  V30 1 O 0.0 0.0 0.0 0
M  V30 2 C -1.2974 0.7414 0.0 0
M  V30 3 C -2.5949 0.0 0.0 0
M  V30 4 C -1.0978 2.5521 0.0 0
M  V30 5 N -3.8924 0.7414 0.0 0
M  V30 6 C -3.8924 2.2384 0.0 0
M  V30 7 C -5.1898 0.0 0.0 0
M  V30 8 C -2.5949 2.9799 0.0 0
M  V30 9 C -6.4873 0.7414 0.0 0
M  V30 10 O -1.5968 2.267 0.0 0
M  V30 11 C -2.5949 4.4769 0.0 0
M  V30 12 O -6.4873 2.2384 0.0 0
M  V30 13 C -7.7848 0.0 0.0 0
M  V30 END ATOM
M  V30 BEGIN BOND
M  V30 1 1 1 2
M  V30 2 1 2 3
M  V30 3 1 2 4
M  V30 4 1 3 5
M  V30 5 1 5 6
M  V30 6 1 5 7
M  V30 7 1 6 8
M  V30 8 1 7 9
M  V30 9 1 8 10
M  V30 10 1 8 11
M  V30 11 1 9 12
M  V30 12 1 9 13
M  V30 END BOND
M  V30 END CTAB
M  END
>  <Molecule Name>
Tri-iso-propanolamine

>  <Activity Label>
0

>  <SMILES>
CC(CN(CC(C)O)CC(C)O)O

>  <Molecular Formula>
C9H21NO3

>  <InChIKey>
SLINHMUFWFWBMU-UHFFFAOYSA-N

>  <Repellency>
Inactive

>  <Reference DOI>
10.3390/toxics11100837

>  <Target Organism>
Not applied

$$$$
Compound 419
Actelion Java MolfileCreator 2.0

  0  0  0  0  0  0              0 V3000
M  V30 BEGIN CTAB
M  V30 COUNTS 13 14 0 0 0
M  V30 BEGIN ATOM
M  V30 1 S 0.0 0.0 0.0 0
M  V30 2 C 1.2994 -0.7442 0.0 0
M  V30 3 C -1.2994 -0.7442 0.0 0
M  V30 4 C 1.2994 -2.2445 0.0 0
M  V30 5 C 2.5989 0.0 0.0 0
M  V30 6 C -2.5989 0.0118 0.0 0
M  V30 7 C -1.2994 -2.2445 0.0 0
M  V30 8 C 2.5989 -3.0006 0.0 0
M  V30 9 C 3.8984 -0.756 0.0 0
M  V30 10 C -3.8984 -0.7324 0.0 0
M  V30 11 C -2.5989 -2.9888 0.0 0
M  V30 12 C 3.8984 -2.2563 0.0 0
M  V30 13 C -3.8984 -2.2327 0.0 0
M  V30 END ATOM
M  V30 BEGIN BOND
M  V30 1 1 1 2
M  V30 2 1 1 3
M  V30 3 2 2 4
M  V30 4 1 2 5
M  V30 5 2 3 6
M  V30 6 1 3 7
M  V30 7 1 4 8
M  V30 8 2 5 9
M  V30 9 1 6 10
M  V30 10 2 7 11
M  V30 11 2 8 12
M  V30 12 2 10 13
M  V30 13 1 9 12
M  V30 14 1 11 13
M  V30 END BOND
M  V30 END CTAB
M  END
>  <Molecule Name>
Diphenyl sulfide

>  <Activity Label>
0

>  <SMILES>
c(cc1)ccc1Sc1ccccc1

>  <Molecular Formula>
C12H10S

>  <InChIKey>
LTYMSROWYAPPGB-UHFFFAOYSA-N

>  <Repellency>
Inactive

>  <Reference DOI>
10.3390/toxics11100837

>  <Target Organism>
Not applied

$$$$
Compound 420
Actelion Java MolfileCreator 2.0

  0  0  0  0  0  0              0 V3000
M  V30 BEGIN CTAB
M  V30 COUNTS 13 14 0 0 0
M  V30 BEGIN ATOM
M  V30 1 Cl 0.0 0.0 0.0 0
M  V30 2 C -1.2994 -0.7442 0.0 0
M  V30 3 C -2.5989 0.0118 0.0 0
M  V30 4 C -1.2994 -2.2445 0.0 0
M  V30 5 C -3.8984 -0.7324 0.0 0
M  V30 6 C -2.5989 -2.9888 0.0 0
M  V30 7 C -3.8984 -2.2327 0.0 0
M  V30 8 C -5.1979 -2.9769 0.0 0
M  V30 9 C -6.4973 -2.2209 0.0 0
M  V30 10 C -5.1979 -4.4772 0.0 0
M  V30 11 C -7.7968 -2.9651 0.0 0
M  V30 12 C -6.4973 -5.2215 0.0 0
M  V30 13 C -7.7968 -4.4654 0.0 0
M  V30 END ATOM
M  V30 BEGIN BOND
M  V30 1 1 1 2
M  V30 2 1 2 3
M  V30 3 1 2 4
M  V30 4 1 3 5
M  V30 5 1 4 6
M  V30 6 1 5 7
M  V30 7 1 7 8
M  V30 8 2 8 9
M  V30 9 1 8 10
M  V30 10 1 9 11
M  V30 11 2 10 12
M  V30 12 2 11 13
M  V30 13 1 6 7
M  V30 14 1 12 13
M  V30 END BOND
M  V30 END CTAB
M  END
>  <Molecule Name>
4-chlorocyclohexylbenzene

>  <Activity Label>
0

>  <SMILES>
ClC(CC1)CCC1c1ccccc1

>  <Molecular Formula>
C12H15Cl

>  <InChIKey>
XWXBWCBHZSFRGQ-UHFFFAOYSA-N

>  <Repellency>
Inactive

>  <Reference DOI>
10.3390/toxics11100837

>  <Target Organism>
Not applied

$$$$
Compound 421
Actelion Java MolfileCreator 2.0

  0  0  0  0  0  0              0 V3000
M  V30 BEGIN CTAB
M  V30 COUNTS 13 14 0 0 0
M  V30 BEGIN ATOM
M  V30 1 Br 0.0 0.0 0.0 0
M  V30 2 C -1.2991 -0.744 0.0 0
M  V30 3 C -2.5982 0.0118 0.0 0
M  V30 4 C -1.2991 -2.2439 0.0 0
M  V30 5 C -3.8973 -0.7322 0.0 0
M  V30 6 C -2.5982 -2.9879 0.0 0
M  V30 7 C -5.1964 0.0236 0.0 0
M  V30 8 C -3.8973 -2.2321 0.0 0
M  V30 9 C -5.1964 1.5235 0.0 0
M  V30 10 C -6.4955 -0.7204 0.0 0
M  V30 11 C -6.4955 2.2793 0.0 0
M  V30 12 C -7.7946 0.0354 0.0 0
M  V30 13 C -7.7946 1.5353 0.0 0
M  V30 END ATOM
M  V30 BEGIN BOND
M  V30 1 1 1 2
M  V30 2 2 2 3
M  V30 3 1 2 4
M  V30 4 1 3 5
M  V30 5 2 4 6
M  V30 6 1 5 7
M  V30 7 2 5 8
M  V30 8 2 7 9
M  V30 9 1 7 10
M  V30 10 1 9 11
M  V30 11 2 10 12
M  V30 12 2 11 13
M  V30 13 1 6 8
M  V30 14 1 12 13
M  V30 END BOND
M  V30 END CTAB
M  END
>  <Molecule Name>
3-Bromobiphenyl

>  <Activity Label>
0

>  <SMILES>
Brc1cc(-c2ccccc2)ccc1

>  <Molecular Formula>
C12H9Br

>  <InChIKey>
USYQKCQEVBFJRP-UHFFFAOYSA-N

>  <Repellency>
Inactive

>  <Reference DOI>
10.3390/toxics11100837

>  <Target Organism>
Not applied

$$$$
Compound 422
Actelion Java MolfileCreator 2.0

  0  0  0  0  0  0              0 V3000
M  V30 BEGIN CTAB
M  V30 COUNTS 13 14 0 0 0
M  V30 BEGIN ATOM
M  V30 1 O 0.0 0.0 0.0 0
M  V30 2 C 0.3071 -1.4648 0.0 0
M  V30 3 O -0.697 -2.5753 0.0 0
M  V30 4 C 1.6775 -2.0792 0.0 0
M  V30 5 C 0.0472 -3.8748 0.0 0
M  V30 6 C 2.977 -1.3349 0.0 0
M  V30 7 C 1.5239 -3.5677 0.0 0
M  V30 8 C -0.567 -5.2452 0.0 0
M  V30 9 C 4.2765 -2.091 0.0 0
M  V30 10 C 2.977 0.1653 0.0 0
M  V30 11 C 5.576 -1.3467 0.0 0
M  V30 12 C 4.2765 0.9096 0.0 0
M  V30 13 C 5.576 0.1535 0.0 0
M  V30 END ATOM
M  V30 BEGIN BOND
M  V30 1 2 1 2
M  V30 2 1 2 3
M  V30 3 1 2 4
M  V30 4 1 3 5
M  V30 5 1 4 6
M  V30 6 1 4 7
M  V30 7 1 5 8
M  V30 8 2 6 9
M  V30 9 1 6 10
M  V30 10 1 9 11
M  V30 11 2 10 12
M  V30 12 2 11 13
M  V30 13 1 5 7
M  V30 14 1 12 13
M  V30 END BOND
M  V30 END CTAB
M  END
>  <Molecule Name>
alpha-Phenyl-gamma-valerolactone

>  <Activity Label>
0

>  <SMILES>
CC(CC1c2ccccc2)OC1=O

>  <Molecular Formula>
C11H12O2

>  <InChIKey>
CBUFPCXFXMRPLA-UHFFFAOYSA-N

>  <Repellency>
Inactive

>  <Reference DOI>
10.3390/toxics11100837

>  <Target Organism>
Not applied

$$$$
Compound 423
Actelion Java MolfileCreator 2.0

  0  0  0  0  0  0              0 V3000
M  V30 BEGIN CTAB
M  V30 COUNTS 13 14 0 0 0
M  V30 BEGIN ATOM
M  V30 1 O 0.0 0.0 0.0 0
M  V30 2 C 1.2991 -0.7558 0.0 0
M  V30 3 C -1.2991 -0.744 0.0 0
M  V30 4 O 1.2991 -2.2557 0.0 0
M  V30 5 C 2.5982 -1.5116 0.0 0
M  V30 6 C 2.5982 -0.0118 0.0 0
M  V30 7 C -1.2991 -2.2439 0.0 0
M  V30 8 C 0.0 -2.9997 0.0 0
M  V30 9 C 2.5982 -3.0115 0.0 0
M  V30 10 C 3.8973 -0.7676 0.0 0
M  V30 11 C 3.8973 -3.7674 0.0 0
M  V30 12 C 5.1964 -1.5235 0.0 0
M  V30 13 C 5.1964 -3.0233 0.0 0
M  V30 END ATOM
M  V30 BEGIN BOND
M  V30 1 1 1 2
M  V30 2 1 1 3
M  V30 3 1 2 4
M  V30 4 1 2 5
M  V30 5 1 2 6
M  V30 6 1 3 7
M  V30 7 1 4 8
M  V30 8 2 5 9
M  V30 9 1 5 10
M  V30 10 1 9 11
M  V30 11 2 10 12
M  V30 12 2 11 13
M  V30 13 1 7 8
M  V30 14 1 12 13
M  V30 END BOND
M  V30 END CTAB
M  END
>  <Molecule Name>
2-Methyl-2-phenyl-m-dioxane

>  <Activity Label>
0

>  <SMILES>
CC1(c2ccccc2)OCCCO1

>  <Molecular Formula>
C11H14O2

>  <InChIKey>
LRWANTYTQLCKAR-UHFFFAOYSA-N

>  <Repellency>
Inactive

>  <Reference DOI>
10.3390/toxics11100837

>  <Target Organism>
Not applied

$$$$
Compound 424
Actelion Java MolfileCreator 2.0

  0  0  0  0  0  0              0 V3000
M  V30 BEGIN CTAB
M  V30 COUNTS 13 14 0 0 0
M  V30 BEGIN ATOM
M  V30 1 O 0.0 0.0 0.0 0
M  V30 2 C 0.0 -1.4996 0.0 0
M  V30 3 C 1.2989 -2.2554 0.0 0
M  V30 4 C -1.2989 -2.2554 0.0 0
M  V30 5 C 2.5978 -1.5114 0.0 0
M  V30 6 C 1.2989 -3.7551 0.0 0
M  V30 7 C 3.8968 -2.2672 0.0 0
M  V30 8 C 2.5978 -0.0118 0.0 0
M  V30 9 C 2.5978 -4.5108 0.0 0
M  V30 10 C 3.8968 -3.7669 0.0 0
M  V30 11 C 5.1957 -1.5114 0.0 0
M  V30 12 C 3.8968 0.7321 0.0 0
M  V30 13 C 5.1957 -0.0118 0.0 0
M  V30 END ATOM
M  V30 BEGIN BOND
M  V30 1 2 1 2
M  V30 2 1 2 3
M  V30 3 1 2 4
M  V30 4 1 3 5
M  V30 5 2 3 6
M  V30 6 2 5 7
M  V30 7 1 5 8
M  V30 8 1 6 9
M  V30 9 1 7 10
M  V30 10 1 7 11
M  V30 11 2 8 12
M  V30 12 2 11 13
M  V30 13 2 9 10
M  V30 14 1 12 13
M  V30 END BOND
M  V30 END CTAB
M  END
>  <Molecule Name>
Methyl alpha-naphthyl ketone

>  <Activity Label>
0

>  <SMILES>
CC(c1cccc2c1cccc2)=O

>  <Molecular Formula>
C12H10O

>  <InChIKey>
QQLIGMASAVJVON-UHFFFAOYSA-N

>  <Repellency>
Inactive

>  <Reference DOI>
10.3390/toxics11100837

>  <Target Organism>
Not applied

$$$$
Compound 425
Actelion Java MolfileCreator 2.0

  0  0  0  0  0  0              0 V3000
M  V30 BEGIN CTAB
M  V30 COUNTS 13 14 0 0 0
M  V30 BEGIN ATOM
M  V30 1 O 0.0 0.0 0.0 0
M  V30 2 C -1.2998 -0.7562 0.0 0 CFG=2
M  V30 3 C 1.2998 -0.7562 0.0 0
M  V30 4 C -1.4534 -2.2451 0.0 0
M  V30 5 C -2.6705 -0.1417 0.0 0
M  V30 6 C 2.5996 -0.0118 0.0 0
M  V30 7 C 1.2998 -2.2569 0.0 0
M  V30 8 C -2.9186 -2.5523 0.0 0
M  V30 9 C -0.449 -3.3558 0.0 0
M  V30 10 C -3.6748 -1.2525 0.0 0
M  V30 11 C -3.3794 -3.9821 0.0 0
M  V30 12 C -0.9098 -4.7856 0.0 0
M  V30 13 C -2.375 -5.0928 0.0 0
M  V30 END ATOM
M  V30 BEGIN BOND
M  V30 1 1 2 1 CFG=3
M  V30 2 1 1 3
M  V30 3 1 2 4
M  V30 4 1 2 5
M  V30 5 1 3 6
M  V30 6 1 3 7
M  V30 7 2 4 8
M  V30 8 1 4 9
M  V30 9 1 5 10
M  V30 10 1 8 11
M  V30 11 2 9 12
M  V30 12 2 11 13
M  V30 13 1 8 10
M  V30 14 1 12 13
M  V30 END BOND
M  V30 BEGIN COLLECTION
M  V30 MDLV30/STERAC1 ATOMS=(1 2)
M  V30 END COLLECTION
M  V30 END CTAB
M  END
>  <Molecule Name>
1-iso-Propoxyindane

>  <Activity Label>
0

>  <SMILES>
CC(C)OC(CC1)c2c1cccc2

>  <Molecular Formula>
C12H16O

>  <InChIKey>
RUIKYDKRRUTXCW-UHFFFAOYSA-N

>  <Repellency>
Inactive

>  <Reference DOI>
10.3390/toxics11100837

>  <Target Organism>
Not applied

$$$$
Compound 426
Actelion Java MolfileCreator 2.0

  0  0  0  0  0  0              0 V3000
M  V30 BEGIN CTAB
M  V30 COUNTS 13 14 0 0 0
M  V30 BEGIN ATOM
M  V30 1 Br 0.0 0.0 0.0 0
M  V30 2 C -1.2987 0.7556 0.0 0
M  V30 3 C -2.5974 0.0118 0.0 0
M  V30 4 C -1.2987 2.255 0.0 0
M  V30 5 C -3.8962 0.7556 0.0 0
M  V30 6 C -2.5974 -1.4876 0.0 0
M  V30 7 C -2.5974 3.0107 0.0 0
M  V30 8 C -3.8962 2.255 0.0 0
M  V30 9 C -5.1949 0.0 0.0 0
M  V30 10 C -3.8962 -2.2432 0.0 0
M  V30 11 O -5.1949 2.9989 0.0 0
M  V30 12 C -5.1949 -1.4994 0.0 0
M  V30 13 C -6.4937 2.2432 0.0 0
M  V30 END ATOM
M  V30 BEGIN BOND
M  V30 1 1 1 2
M  V30 2 1 2 3
M  V30 3 2 2 4
M  V30 4 2 3 5
M  V30 5 1 3 6
M  V30 6 1 4 7
M  V30 7 1 5 8
M  V30 8 1 5 9
M  V30 9 2 6 10
M  V30 10 1 8 11
M  V30 11 2 9 12
M  V30 12 1 11 13
M  V30 13 2 7 8
M  V30 14 1 10 12
M  V30 END BOND
M  V30 END CTAB
M  END
>  <Molecule Name>
1-Bromo-4-methoxynaphthalene

>  <Activity Label>
0

>  <SMILES>
COc(c1c2cccc1)ccc2Br

>  <Molecular Formula>
C11H9OBr

>  <InChIKey>
XURSAEHRFFSJED-UHFFFAOYSA-N

>  <Repellency>
Inactive

>  <Reference DOI>
10.3390/toxics11100837

>  <Target Organism>
Not applied

$$$$
Compound 427
Actelion Java MolfileCreator 2.0

  0  0  0  0  0  0              0 V3000
M  V30 BEGIN CTAB
M  V30 COUNTS 13 14 0 0 0
M  V30 BEGIN ATOM
M  V30 1 S 0.0 0.0 0.0 0
M  V30 2 C -1.3704 -0.6143 0.0 0
M  V30 3 C 1.0041 -1.1105 0.0 0
M  V30 4 C -2.6699 0.1299 0.0 0
M  V30 5 C -1.2168 -2.1029 0.0 0
M  V30 6 C 0.2599 -2.41 0.0 0
M  V30 7 O -2.6699 1.6303 0.0 0
M  V30 8 C -3.9695 -0.6143 0.0 0
M  V30 9 C -5.269 0.1417 0.0 0
M  V30 10 C -3.9695 -2.1147 0.0 0
M  V30 11 C -6.5686 -0.6025 0.0 0
M  V30 12 C -5.269 -2.859 0.0 0
M  V30 13 C -6.5686 -2.1029 0.0 0
M  V30 END ATOM
M  V30 BEGIN BOND
M  V30 1 1 1 2
M  V30 2 1 1 3
M  V30 3 1 2 4
M  V30 4 2 2 5
M  V30 5 2 3 6
M  V30 6 2 4 7
M  V30 7 1 4 8
M  V30 8 1 8 9
M  V30 9 1 8 10
M  V30 10 1 9 11
M  V30 11 1 10 12
M  V30 12 1 11 13
M  V30 13 1 5 6
M  V30 14 1 12 13
M  V30 END BOND
M  V30 END CTAB
M  END
>  <Molecule Name>
Cyclohexyl 2-thienyl ketone

>  <Activity Label>
0

>  <SMILES>
O=C(C1CCCCC1)c1ccc[s]1

>  <Molecular Formula>
C11H14OS

>  <InChIKey>
QOIUOTZUUAADJI-UHFFFAOYSA-N

>  <Repellency>
Inactive

>  <Reference DOI>
10.3390/toxics11100837

>  <Target Organism>
Not applied

$$$$
Compound 428
Actelion Java MolfileCreator 2.0

  0  0  0  0  0  0              0 V3000
M  V30 BEGIN CTAB
M  V30 COUNTS 13 14 0 0 0
M  V30 BEGIN ATOM
M  V30 1 O 0.0 0.0 0.0 0
M  V30 2 C -1.2983 0.7554 0.0 0
M  V30 3 O -1.2983 2.2544 0.0 0
M  V30 4 C -2.5967 0.0118 0.0 0
M  V30 5 C -2.5967 3.0098 0.0 0
M  V30 6 C -3.8951 0.7672 0.0 0
M  V30 7 C -2.5967 4.5089 0.0 0
M  V30 8 C -3.8951 2.2662 0.0 0
M  V30 9 O -1.2983 5.2525 0.0 0
M  V30 10 C -3.8951 5.2643 0.0 0
M  V30 11 C -5.1935 3.0098 0.0 0
M  V30 12 C 0.0 4.4971 0.0 0
M  V30 13 C -5.1935 4.5207 0.0 0
M  V30 END ATOM
M  V30 BEGIN BOND
M  V30 1 2 1 2
M  V30 2 1 2 3
M  V30 3 1 2 4
M  V30 4 1 3 5
M  V30 5 2 4 6
M  V30 6 2 5 7
M  V30 7 1 5 8
M  V30 8 1 7 9
M  V30 9 1 7 10
M  V30 10 2 8 11
M  V30 11 1 9 12
M  V30 12 2 10 13
M  V30 13 1 6 8
M  V30 14 1 11 13
M  V30 END BOND
M  V30 END CTAB
M  END
>  <Molecule Name>
8-Methoxycoumarin

>  <Activity Label>
0

>  <SMILES>
COc(cccc1C=C2)c1OC2=O

>  <Molecular Formula>
C10H8O3

>  <InChIKey>
ODRDTKMYQDXVGG-UHFFFAOYSA-N

>  <Repellency>
Inactive

>  <Reference DOI>
10.3390/toxics11100837

>  <Target Organism>
Not applied

$$$$
Compound 429
Actelion Java MolfileCreator 2.0

  0  0  0  0  0  0              0 V3000
M  V30 BEGIN CTAB
M  V30 COUNTS 13 14 0 0 0
M  V30 BEGIN ATOM
M  V30 1 O 0.0 0.0 0.0 0
M  V30 2 C 1.4913 -0.1526 0.0 0
M  V30 3 O 2.4894 0.9629 0.0 0
M  V30 4 C 2.2428 -1.4561 0.0 0
M  V30 5 C 3.8633 0.3522 0.0 0 CFG=1
M  V30 6 C 3.7107 -1.139 0.0 0
M  V30 7 C 1.7849 -2.8769 0.0 0
M  V30 8 O 5.1668 1.1038 0.0 0
M  V30 9 C 4.7088 -2.2546 0.0 0
M  V30 10 C 2.783 -3.9925 0.0 0
M  V30 11 C 6.4702 0.3522 0.0 0
M  V30 12 C 4.2508 -3.6754 0.0 0
M  V30 13 C 7.7737 1.1038 0.0 0
M  V30 END ATOM
M  V30 BEGIN BOND
M  V30 1 2 1 2
M  V30 2 1 2 3
M  V30 3 1 2 4
M  V30 4 1 3 5
M  V30 5 2 4 6
M  V30 6 1 4 7
M  V30 7 1 5 8 CFG=3
M  V30 8 1 6 9
M  V30 9 2 7 10
M  V30 10 1 8 11
M  V30 11 2 9 12
M  V30 12 1 11 13
M  V30 13 1 5 6
M  V30 14 1 10 12
M  V30 END BOND
M  V30 BEGIN COLLECTION
M  V30 MDLV30/STERAC1 ATOMS=(1 5)
M  V30 END COLLECTION
M  V30 END CTAB
M  END
>  <Molecule Name>
3-Ethoxyphthalide

>  <Activity Label>
0

>  <SMILES>
CCOC(c1c2cccc1)OC2=O

>  <Molecular Formula>
C10H10O3

>  <InChIKey>
VCBNFFOSUGMASJ-UHFFFAOYSA-N

>  <Repellency>
Inactive

>  <Reference DOI>
10.3390/toxics11100837

>  <Target Organism>
Not applied

$$$$
Compound 430
Actelion Java MolfileCreator 2.0

  0  0  0  0  0  0              0 V3000
M  V30 BEGIN CTAB
M  V30 COUNTS 13 14 0 0 0
M  V30 BEGIN ATOM
M  V30 1 O 0.0 0.0 0.0 0
M  V30 2 C 0.0 -1.5003 0.0 0
M  V30 3 N -1.2994 -2.2445 0.0 0
M  V30 4 C 1.2994 -2.2445 0.0 0
M  V30 5 C -2.5989 -1.4884 0.0 0
M  V30 6 C -1.2994 -3.7448 0.0 0
M  V30 7 C -3.8984 -2.2327 0.0 0
M  V30 8 C -2.5989 -4.4891 0.0 0
M  V30 9 C -3.8984 -3.733 0.0 0
M  V30 10 C -5.1979 -1.4766 0.0 0
M  V30 11 C -5.1979 -4.4772 0.0 0
M  V30 12 C -6.4973 -2.2209 0.0 0
M  V30 13 C -6.4973 -3.7212 0.0 0
M  V30 END ATOM
M  V30 BEGIN BOND
M  V30 1 2 1 2
M  V30 2 1 2 3
M  V30 3 1 2 4
M  V30 4 1 3 5
M  V30 5 1 3 6
M  V30 6 1 5 7
M  V30 7 1 6 8
M  V30 8 2 7 9
M  V30 9 1 7 10
M  V30 10 1 9 11
M  V30 11 2 10 12
M  V30 12 2 11 13
M  V30 13 1 8 9
M  V30 14 1 12 13
M  V30 END BOND
M  V30 END CTAB
M  END
>  <Molecule Name>
N-Acetyl-1,2,3,4-tetrahydroisoquinoline

>  <Activity Label>
0

>  <SMILES>
CC(N(CC1)Cc2c1cccc2)=O

>  <Molecular Formula>
C11H13NO

>  <InChIKey>
JBPPSLURCSFQDH-UHFFFAOYSA-N

>  <Repellency>
Inactive

>  <Reference DOI>
10.3390/toxics11100837

>  <Target Organism>
Not applied

$$$$
Compound 431
Actelion Java MolfileCreator 2.0

  0  0  0  0  0  0              0 V3000
M  V30 BEGIN CTAB
M  V30 COUNTS 13 13 0 0 0
M  V30 BEGIN ATOM
M  V30 1 Cl 0.0 0.0 0.0 0
M  V30 2 C 0.0 -1.5003 0.0 0
M  V30 3 C -1.2995 -2.2564 0.0 0
M  V30 4 C 1.2995 -2.2446 0.0 0
M  V30 5 C -1.2995 -3.7567 0.0 0
M  V30 6 C -2.599 -1.5121 0.0 0
M  V30 7 C 1.2995 -3.7449 0.0 0
M  V30 8 C 0.0 -4.501 0.0 0
M  V30 9 C -2.599 -0.0118 0.0 0
M  V30 10 C -3.8985 -2.2564 0.0 0
M  V30 11 C 2.599 -4.4892 0.0 0
M  V30 12 C 2.599 -5.9896 0.0 0
M  V30 13 C 3.8985 -3.7331 0.0 0
M  V30 END ATOM
M  V30 BEGIN BOND
M  V30 1 1 1 2
M  V30 2 2 2 3
M  V30 3 1 2 4
M  V30 4 1 3 5
M  V30 5 1 3 6
M  V30 6 2 4 7
M  V30 7 2 5 8
M  V30 8 1 6 9
M  V30 9 1 6 10
M  V30 10 1 7 11
M  V30 11 1 11 12
M  V30 12 1 11 13
M  V30 13 1 7 8
M  V30 END BOND
M  V30 END CTAB
M  END
>  <Molecule Name>
2-Chloro-1,4-di-iso-propyl benzene

>  <Activity Label>
0

>  <SMILES>
CC(C)c1cc(Cl)c(C(C)C)cc1

>  <Molecular Formula>
C12H17Cl

>  <InChIKey>
DAQRAOORRPJOKE-UHFFFAOYSA-N

>  <Repellency>
Inactive

>  <Reference DOI>
10.3390/toxics11100837

>  <Target Organism>
Not applied

$$$$
Compound 432
Actelion Java MolfileCreator 2.0

  0  0  0  0  0  0              0 V3000
M  V30 BEGIN CTAB
M  V30 COUNTS 13 13 0 0 0
M  V30 BEGIN ATOM
M  V30 1 O 0.0 0.0 0.0 0
M  V30 2 C 1.1114 1.005 0.0 0
M  V30 3 O 2.5776 0.6976 0.0 0
M  V30 4 C 0.9577 2.4948 0.0 0
M  V30 5 C 3.3225 1.9982 0.0 0
M  V30 6 C -0.3428 3.2397 0.0 0
M  V30 7 C 2.3293 3.1097 0.0 0
M  V30 8 C 4.8123 2.1519 0.0 0
M  V30 9 O -0.3428 4.7414 0.0 0
M  V30 10 O -1.6435 2.483 0.0 0
M  V30 11 C 5.6991 0.934 0.0 0
M  V30 12 C -2.9441 3.2279 0.0 0
M  V30 13 C -4.2448 2.4712 0.0 0
M  V30 END ATOM
M  V30 BEGIN BOND
M  V30 1 2 1 2
M  V30 2 1 2 3
M  V30 3 1 2 4
M  V30 4 1 3 5
M  V30 5 1 4 6
M  V30 6 1 4 7
M  V30 7 1 5 8
M  V30 8 2 6 9
M  V30 9 1 6 10
M  V30 10 2 8 11
M  V30 11 1 10 12
M  V30 12 1 12 13
M  V30 13 1 5 7
M  V30 END BOND
M  V30 END CTAB
M  END
>  <Molecule Name>
Gamma-Vinyl-alpha-carboethoxy-butyrolactone

>  <Activity Label>
0

>  <SMILES>
CCOC(C(CC(C=C)O1)C1=O)=O

>  <Molecular Formula>
C9H12O4

>  <InChIKey>
GNWVYSGIMJKWCD-UHFFFAOYSA-N

>  <Repellency>
Inactive

>  <Reference DOI>
10.3390/toxics11100837

>  <Target Organism>
Not applied

$$$$
Compound 433
Actelion Java MolfileCreator 2.0

  0  0  0  0  0  0              0 V3000
M  V30 BEGIN CTAB
M  V30 COUNTS 13 13 0 0 0
M  V30 BEGIN ATOM
M  V30 1 O 0.0 0.0 0.0 0
M  V30 2 C 0.0 1.5023 0.0 0
M  V30 3 C 1.3012 2.2476 0.0 0
M  V30 4 C 1.3012 3.75 0.0 0
M  V30 5 C 2.6025 1.5023 0.0 0
M  V30 6 C 2.6025 4.4953 0.0 0
M  V30 7 C 3.9038 2.2476 0.0 0
M  V30 8 C 3.9038 3.7382 0.0 0
M  V30 9 O 5.2051 4.4835 0.0 0
M  V30 10 C 6.5064 3.7382 0.0 0
M  V30 11 C 7.8077 4.4835 0.0 0
M  V30 12 C 9.1089 3.7382 0.0 0
M  V30 13 C 7.8077 5.9859 0.0 0
M  V30 END ATOM
M  V30 BEGIN BOND
M  V30 1 2 1 2
M  V30 2 1 2 3
M  V30 3 2 3 4
M  V30 4 1 3 5
M  V30 5 1 4 6
M  V30 6 2 5 7
M  V30 7 2 6 8
M  V30 8 1 8 9
M  V30 9 1 9 10
M  V30 10 1 10 11
M  V30 11 1 11 12
M  V30 12 1 11 13
M  V30 13 1 7 8
M  V30 END BOND
M  V30 END CTAB
M  END
>  <Molecule Name>
p-iso-Butoxybenzaldehyde

>  <Activity Label>
0

>  <SMILES>
CC(C)COc1ccc(C=O)cc1

>  <Molecular Formula>
C11H14O2

>  <InChIKey>
PWASYRSZCSTUIW-UHFFFAOYSA-N

>  <Repellency>
Inactive

>  <Reference DOI>
10.3390/toxics11100837

>  <Target Organism>
Not applied

$$$$
Compound 434
Actelion Java MolfileCreator 2.0

  0  0  0  0  0  0              0 V3000
M  V30 BEGIN CTAB
M  V30 COUNTS 13 13 0 0 0
M  V30 BEGIN ATOM
M  V30 1 O 0.0 0.0 0.0 0
M  V30 2 C -1.3001 -0.7446 0.0 0
M  V30 3 C 1.3001 -0.7446 0.0 0
M  V30 4 C -2.6002 0.0118 0.0 0
M  V30 5 C -1.3001 -2.2456 0.0 0
M  V30 6 C 2.6002 0.0 0.0 0
M  V30 7 C -3.9003 -0.7327 0.0 0
M  V30 8 C -2.6002 -2.9902 0.0 0
M  V30 9 C 3.9003 -0.7446 0.0 0
M  V30 10 C 2.6002 1.501 0.0 0
M  V30 11 C -3.9003 -2.2338 0.0 0
M  V30 12 C -5.2004 -2.9784 0.0 0
M  V30 13 O -5.2004 -4.4794 0.0 0
M  V30 END ATOM
M  V30 BEGIN BOND
M  V30 1 1 1 2
M  V30 2 1 1 3
M  V30 3 2 2 4
M  V30 4 1 2 5
M  V30 5 1 3 6
M  V30 6 1 4 7
M  V30 7 2 5 8
M  V30 8 1 6 9
M  V30 9 1 6 10
M  V30 10 2 7 11
M  V30 11 1 11 12
M  V30 12 1 12 13
M  V30 13 1 8 11
M  V30 END BOND
M  V30 END CTAB
M  END
>  <Molecule Name>
p-iso-Butoxybenzyl alcohol

>  <Activity Label>
0

>  <SMILES>
CC(C)COc1ccc(CO)cc1

>  <Molecular Formula>
C11H16O2

>  <InChIKey>
DWPIWDIFYXPDHX-UHFFFAOYSA-N

>  <Repellency>
Inactive

>  <Reference DOI>
10.3390/toxics11100837

>  <Target Organism>
Not applied

$$$$
Compound 435
Actelion Java MolfileCreator 2.0

  0  0  0  0  0  0              0 V3000
M  V30 BEGIN CTAB
M  V30 COUNTS 13 13 0 0 0
M  V30 BEGIN ATOM
M  V30 1 O 0.0 0.0 0.0 0
M  V30 2 C 0.0 1.5012 0.0 0
M  V30 3 O -1.3002 2.2459 0.0 0
M  V30 4 C 1.3002 2.2459 0.0 0
M  V30 5 C -2.6005 1.5012 0.0 0
M  V30 6 C 2.6005 1.5012 0.0 0
M  V30 7 C -3.9008 2.2577 0.0 0
M  V30 8 C -2.6005 0.0 0.0 0
M  V30 9 C 3.9008 2.2459 0.0 0
M  V30 10 C -5.2011 1.513 0.0 0
M  V30 11 C -3.9008 -0.7447 0.0 0
M  V30 12 C 5.2011 1.5012 0.0 0
M  V30 13 C -5.2011 0.0118 0.0 0
M  V30 END ATOM
M  V30 BEGIN BOND
M  V30 1 2 1 2
M  V30 2 1 2 3
M  V30 3 1 2 4
M  V30 4 1 3 5
M  V30 5 1 4 6
M  V30 6 1 5 7
M  V30 7 1 5 8
M  V30 8 1 6 9
M  V30 9 1 7 10
M  V30 10 1 8 11
M  V30 11 1 9 12
M  V30 12 1 10 13
M  V30 13 1 11 13
M  V30 END BOND
M  V30 END CTAB
M  END
>  <Molecule Name>
Valeric acid, cyclohexyl ester

>  <Activity Label>
0

>  <SMILES>
CCCCC(OC1CCCCC1)=O

>  <Molecular Formula>
C11H20O2

>  <InChIKey>
YLCHTSSXNSNXSW-UHFFFAOYSA-N

>  <Repellency>
Inactive

>  <Reference DOI>
10.3390/toxics11100837

>  <Target Organism>
Not applied

$$$$
Compound 436
Actelion Java MolfileCreator 2.0

  0  0  0  0  0  0              0 V3000
M  V30 BEGIN CTAB
M  V30 COUNTS 13 13 0 0 0
M  V30 BEGIN ATOM
M  V30 1 O 0.0 0.0 0.0 0
M  V30 2 C 0.0 1.5019 0.0 0
M  V30 3 O -1.3008 2.2469 0.0 0
M  V30 4 C 1.3008 2.2469 0.0 0
M  V30 5 C -2.6017 1.5019 0.0 0
M  V30 6 C 2.6017 1.5019 0.0 0
M  V30 7 C 1.3008 3.7489 0.0 0
M  V30 8 C -3.9026 2.2469 0.0 0
M  V30 9 C 3.9026 2.2469 0.0 0
M  V30 10 C 2.6017 4.4939 0.0 0
M  V30 11 C -3.9026 3.7489 0.0 0
M  V30 12 C -5.2035 1.5019 0.0 0
M  V30 13 C 3.9026 3.7489 0.0 0
M  V30 END ATOM
M  V30 BEGIN BOND
M  V30 1 2 1 2
M  V30 2 1 2 3
M  V30 3 1 2 4
M  V30 4 1 3 5
M  V30 5 2 4 6
M  V30 6 1 4 7
M  V30 7 1 5 8
M  V30 8 1 6 9
M  V30 9 2 7 10
M  V30 10 1 8 11
M  V30 11 1 8 12
M  V30 12 2 9 13
M  V30 13 1 10 13
M  V30 END BOND
M  V30 END CTAB
M  END
>  <Molecule Name>
Benzoic acid, iso-butyl ester

>  <Activity Label>
0

>  <SMILES>
CC(C)COC(c1ccccc1)=O

>  <Molecular Formula>
C11H14O2

>  <InChIKey>
KYZHGEFMXZOSJN-UHFFFAOYSA-N

>  <Repellency>
Inactive

>  <Reference DOI>
10.3390/toxics11100837

>  <Target Organism>
Not applied

$$$$
Compound 437
Actelion Java MolfileCreator 2.0

  0  0  0  0  0  0              0 V3000
M  V30 BEGIN CTAB
M  V30 COUNTS 13 13 0 0 0
M  V30 BEGIN ATOM
M  V30 1 O 0.0 0.0 0.0 0
M  V30 2 C 0.0 -1.501 0.0 0
M  V30 3 O 1.3001 -2.2456 0.0 0
M  V30 4 C -1.3001 -2.2456 0.0 0 CFG=2
M  V30 5 C 2.6002 -1.501 0.0 0
M  V30 6 C -1.3001 -3.7466 0.0 0
M  V30 7 C -2.6002 -1.501 0.0 0
M  V30 8 C -2.6002 -4.4912 0.0 0
M  V30 9 C 0.0 -4.4912 0.0 0
M  V30 10 C -3.9003 -2.2456 0.0 0
M  V30 11 C -2.6002 -5.9922 0.0 0
M  V30 12 C 0.0 -5.9922 0.0 0
M  V30 13 C -1.3001 -6.7487 0.0 0
M  V30 END ATOM
M  V30 BEGIN BOND
M  V30 1 2 1 2
M  V30 2 1 2 3
M  V30 3 1 2 4
M  V30 4 1 3 5
M  V30 5 1 4 6
M  V30 6 1 4 7 CFG=3
M  V30 7 1 6 8
M  V30 8 1 6 9
M  V30 9 1 7 10
M  V30 10 1 8 11
M  V30 11 1 9 12
M  V30 12 1 11 13
M  V30 13 1 12 13
M  V30 END BOND
M  V30 BEGIN COLLECTION
M  V30 MDLV30/STERAC1 ATOMS=(1 4)
M  V30 END COLLECTION
M  V30 END CTAB
M  END
>  <Molecule Name>
Cyclohexylbutyric acid, methyl ester

>  <Activity Label>
0

>  <SMILES>
CCC(C1CCCCC1)C(OC)=O

>  <Molecular Formula>
C11H20O2

>  <InChIKey>
RCYYXYWVLKXHNT-UHFFFAOYSA-N

>  <Repellency>
Inactive

>  <Reference DOI>
10.3390/toxics11100837

>  <Target Organism>
Not applied

$$$$
Compound 438
Actelion Java MolfileCreator 2.0

  0  0  0  0  0  0              0 V3000
M  V30 BEGIN CTAB
M  V30 COUNTS 13 13 0 0 0
M  V30 BEGIN ATOM
M  V30 1 O 0.0 0.0 0.0 0
M  V30 2 C 0.0 -1.501 0.0 0
M  V30 3 O 1.3001 -2.2456 0.0 0
M  V30 4 C -1.3001 -2.2456 0.0 0 CFG=2
M  V30 5 C 2.6002 -1.501 0.0 0
M  V30 6 C -1.3001 -3.7466 0.0 0
M  V30 7 C -2.6002 -1.501 0.0 0
M  V30 8 C -2.6002 -4.4912 0.0 0
M  V30 9 C 0.0 -4.4912 0.0 0
M  V30 10 C -3.9003 -2.2456 0.0 0
M  V30 11 C -2.6002 -5.9922 0.0 0
M  V30 12 C 0.0 -5.9922 0.0 0
M  V30 13 C -1.3001 -6.7487 0.0 0
M  V30 END ATOM
M  V30 BEGIN BOND
M  V30 1 2 1 2
M  V30 2 1 2 3
M  V30 3 1 2 4
M  V30 4 1 3 5
M  V30 5 1 4 6
M  V30 6 1 4 7 CFG=3
M  V30 7 1 6 8
M  V30 8 1 6 9
M  V30 9 1 7 10
M  V30 10 1 8 11
M  V30 11 1 9 12
M  V30 12 1 11 13
M  V30 13 1 12 13
M  V30 END BOND
M  V30 BEGIN COLLECTION
M  V30 MDLV30/STERAC1 ATOMS=(1 4)
M  V30 END COLLECTION
M  V30 END CTAB
M  END
>  <Molecule Name>
alpha-Cyclohexylbutyric acid, methyl ester

>  <Activity Label>
0

>  <SMILES>
CCC(C1CCCCC1)C(OC)=O

>  <Molecular Formula>
C11H20O2

>  <InChIKey>
RCYYXYWVLKXHNT-UHFFFAOYSA-N

>  <Repellency>
Inactive

>  <Reference DOI>
10.3390/toxics11100837

>  <Target Organism>
Not applied

$$$$
Compound 439
Actelion Java MolfileCreator 2.0

  0  0  0  0  0  0              0 V3000
M  V30 BEGIN CTAB
M  V30 COUNTS 13 13 0 0 0
M  V30 BEGIN ATOM
M  V30 1 O 0.0 0.0 0.0 0
M  V30 2 C 0.0 -1.5019 0.0 0
M  V30 3 O -1.3008 -2.2469 0.0 0
M  V30 4 C 1.3008 -2.2469 0.0 0 CFG=2
M  V30 5 C -2.6017 -1.5019 0.0 0
M  V30 6 C 2.6017 -1.5019 0.0 0
M  V30 7 C 1.3008 -3.7489 0.0 0
M  V30 8 C -3.9026 -2.2469 0.0 0
M  V30 9 C 3.9026 -2.2469 0.0 0
M  V30 10 C 2.6017 0.0 0.0 0
M  V30 11 C 5.2035 -1.5019 0.0 0
M  V30 12 C 3.9026 0.745 0.0 0
M  V30 13 C 5.2035 0.0 0.0 0
M  V30 END ATOM
M  V30 BEGIN BOND
M  V30 1 2 1 2
M  V30 2 1 2 3
M  V30 3 1 2 4
M  V30 4 1 3 5
M  V30 5 1 4 6
M  V30 6 1 4 7 CFG=3
M  V30 7 1 5 8
M  V30 8 1 6 9
M  V30 9 1 6 10
M  V30 10 1 9 11
M  V30 11 1 10 12
M  V30 12 1 11 13
M  V30 13 1 12 13
M  V30 END BOND
M  V30 BEGIN COLLECTION
M  V30 MDLV30/STERAC1 ATOMS=(1 4)
M  V30 END COLLECTION
M  V30 END CTAB
M  END
>  <Molecule Name>
Cyclohexylpropionic acid, ethyl ester

>  <Activity Label>
0

>  <SMILES>
CCOC(C(C)C1CCCCC1)=O

>  <Molecular Formula>
C11H20O2

>  <InChIKey>
PZUDDXJZNSJESK-UHFFFAOYSA-N

>  <Repellency>
Inactive

>  <Reference DOI>
10.3390/toxics11100837

>  <Target Organism>
Not applied

$$$$
Compound 440
Actelion Java MolfileCreator 2.0

  0  0  0  0  0  0              0 V3000
M  V30 BEGIN CTAB
M  V30 COUNTS 13 13 0 0 0
M  V30 BEGIN ATOM
M  V30 1 O 0.0 0.0 0.0 0
M  V30 2 C 0.0 1.5021 0.0 0
M  V30 3 C 1.301 2.2473 0.0 0
M  V30 4 C -1.301 2.2591 0.0 0
M  V30 5 C 1.301 3.7494 0.0 0
M  V30 6 C 2.6021 1.5021 0.0 0
M  V30 7 C -2.6021 1.5139 0.0 0
M  V30 8 C 2.6021 4.4946 0.0 0
M  V30 9 C 3.9032 2.2473 0.0 0
M  V30 10 C 3.9032 3.7376 0.0 0
M  V30 11 O 5.2043 4.4827 0.0 0
M  V30 12 C 6.5053 3.7376 0.0 0
M  V30 13 C 7.8064 4.4827 0.0 0
M  V30 END ATOM
M  V30 BEGIN BOND
M  V30 1 2 1 2
M  V30 2 1 2 3
M  V30 3 1 2 4
M  V30 4 2 3 5
M  V30 5 1 3 6
M  V30 6 1 4 7
M  V30 7 1 5 8
M  V30 8 2 6 9
M  V30 9 2 8 10
M  V30 10 1 10 11
M  V30 11 1 11 12
M  V30 12 1 12 13
M  V30 13 1 9 10
M  V30 END BOND
M  V30 END CTAB
M  END
>  <Molecule Name>
p-Ethoxypropiophenone

>  <Activity Label>
0

>  <SMILES>
CCC(c(cc1)ccc1OCC)=O

>  <Molecular Formula>
C11H14O2

>  <InChIKey>
XZJXCESWBMDSBO-UHFFFAOYSA-N

>  <Repellency>
Inactive

>  <Reference DOI>
10.3390/toxics11100837

>  <Target Organism>
Not applied

$$$$
Compound 441
Actelion Java MolfileCreator 2.0

  0  0  0  0  0  0              0 V3000
M  V30 BEGIN CTAB
M  V30 COUNTS 13 13 0 0 0
M  V30 BEGIN ATOM
M  V30 1 O 0.0 0.0 0.0 0
M  V30 2 C 1.2998 -0.7563 0.0 0
M  V30 3 C 1.2998 -2.257 0.0 0
M  V30 4 C 2.5997 -3.0133 0.0 0
M  V30 5 C 0.0 -3.0015 0.0 0
M  V30 6 O 3.8996 -2.2689 0.0 0
M  V30 7 C 2.5997 -4.5141 0.0 0
M  V30 8 C 0.0 -4.5023 0.0 0
M  V30 9 C 5.1995 -3.0133 0.0 0
M  V30 10 C 1.2998 -5.2586 0.0 0
M  V30 11 C 6.4994 -2.2689 0.0 0
M  V30 12 C 7.7993 -3.0133 0.0 0
M  V30 13 C 9.0992 -2.2689 0.0 0
M  V30 END ATOM
M  V30 BEGIN BOND
M  V30 1 2 1 2
M  V30 2 1 2 3
M  V30 3 2 3 4
M  V30 4 1 3 5
M  V30 5 1 4 6
M  V30 6 1 4 7
M  V30 7 2 5 8
M  V30 8 1 6 9
M  V30 9 2 7 10
M  V30 10 1 9 11
M  V30 11 1 11 12
M  V30 12 1 12 13
M  V30 13 1 8 10
M  V30 END BOND
M  V30 END CTAB
M  END
>  <Molecule Name>
o-n-Butoxybenzaldehyde

>  <Activity Label>
0

>  <SMILES>
CCCCOc1c(C=O)cccc1

>  <Molecular Formula>
C11H14O2

>  <InChIKey>
FSMCOBJDZVRWIZ-UHFFFAOYSA-N

>  <Repellency>
Inactive

>  <Reference DOI>
10.3390/toxics11100837

>  <Target Organism>
Not applied

$$$$
Compound 442
Actelion Java MolfileCreator 2.0

  0  0  0  0  0  0              0 V3000
M  V30 BEGIN CTAB
M  V30 COUNTS 13 13 0 0 0
M  V30 BEGIN ATOM
M  V30 1 O 0.0 0.0 0.0 0
M  V30 2 C 1.3002 0.7447 0.0 0
M  V30 3 C 0.0 -1.5012 0.0 0
M  V30 4 O 2.6005 -0.0118 0.0 0
M  V30 5 C 1.3002 2.2459 0.0 0 CFG=2
M  V30 6 C 1.3002 -2.2577 0.0 0
M  V30 7 C 2.6005 -1.513 0.0 0
M  V30 8 C 0.0 2.9906 0.0 0
M  V30 9 C 2.6005 2.9906 0.0 0
M  V30 10 C -1.3002 2.2459 0.0 0
M  V30 11 C 3.9008 2.2459 0.0 0
M  V30 12 C -2.6005 2.9906 0.0 0
M  V30 13 C -3.9008 2.2459 0.0 0
M  V30 END ATOM
M  V30 BEGIN BOND
M  V30 1 1 1 2
M  V30 2 1 1 3
M  V30 3 1 2 4
M  V30 4 1 2 5
M  V30 5 1 3 6
M  V30 6 1 4 7
M  V30 7 1 5 8 CFG=3
M  V30 8 1 5 9
M  V30 9 1 8 10
M  V30 10 1 9 11
M  V30 11 1 10 12
M  V30 12 1 12 13
M  V30 13 1 6 7
M  V30 END BOND
M  V30 BEGIN COLLECTION
M  V30 MDLV30/STERAC1 ATOMS=(1 5)
M  V30 END COLLECTION
M  V30 END CTAB
M  END
>  <Molecule Name>
2-(3-Heptyl)-m-dioxane

>  <Activity Label>
0

>  <SMILES>
CCCCC(CC)C1OCCCO1

>  <Molecular Formula>
C11H22O2

>  <InChIKey>
BEAQPDAQIMDHNS-UHFFFAOYSA-N

>  <Repellency>
Inactive

>  <Reference DOI>
10.3390/toxics11100837

>  <Target Organism>
Not applied

$$$$
Compound 443
Actelion Java MolfileCreator 2.0

  0  0  0  0  0  0              0 V3000
M  V30 BEGIN CTAB
M  V30 COUNTS 13 13 0 0 0
M  V30 BEGIN ATOM
M  V30 1 O 0.0 0.0 0.0 0
M  V30 2 C 1.2992 -0.7559 0.0 0
M  V30 3 C -1.2992 -0.7559 0.0 0
M  V30 4 C 2.5985 -0.0118 0.0 0
M  V30 5 C -2.5985 -0.0118 0.0 0
M  V30 6 C 2.5985 1.4882 0.0 0
M  V30 7 C 3.8978 -0.7677 0.0 0
M  V30 8 C -3.8978 -0.7677 0.0 0
M  V30 9 C 3.8978 2.2324 0.0 0
M  V30 10 C 5.1971 -0.0118 0.0 0
M  V30 11 C 5.1971 1.4764 0.0 0
M  V30 12 O 6.4964 2.2206 0.0 0
M  V30 13 C 7.7957 1.4646 0.0 0
M  V30 END ATOM
M  V30 BEGIN BOND
M  V30 1 1 1 2
M  V30 2 1 1 3
M  V30 3 1 2 4
M  V30 4 1 3 5
M  V30 5 2 4 6
M  V30 6 1 4 7
M  V30 7 2 5 8
M  V30 8 1 6 9
M  V30 9 2 7 10
M  V30 10 2 9 11
M  V30 11 1 11 12
M  V30 12 1 12 13
M  V30 13 1 10 11
M  V30 END BOND
M  V30 END CTAB
M  END
>  <Molecule Name>
Allyl p-methoxybenzyl ether

>  <Activity Label>
0

>  <SMILES>
COc1ccc(COCC=C)cc1

>  <Molecular Formula>
C11H14O2

>  <InChIKey>
DYYOPTUSOFCKON-UHFFFAOYSA-N

>  <Repellency>
Inactive

>  <Reference DOI>
10.3390/toxics11100837

>  <Target Organism>
Not applied

$$$$
Compound 444
Actelion Java MolfileCreator 2.0

  0  0  0  0  0  0              0 V3000
M  V30 BEGIN CTAB
M  V30 COUNTS 13 13 0 0 0
M  V30 BEGIN ATOM
M  V30 1 Cl 0.0 0.0 0.0 0
M  V30 2 C 0.0 -1.4996 0.0 0
M  V30 3 C -1.2989 -2.2435 0.0 0
M  V30 4 C 1.2989 -2.2553 0.0 0
M  V30 5 C -1.2989 -3.7432 0.0 0
M  V30 6 C 1.2989 -3.755 0.0 0
M  V30 7 C -2.5978 -4.4989 0.0 0
M  V30 8 C 0.0 -4.4989 0.0 0
M  V30 9 O -2.5978 -5.9986 0.0 0
M  V30 10 O -3.8967 -3.755 0.0 0
M  V30 11 C -5.1956 -4.5107 0.0 0
M  V30 12 C -6.4946 -3.7668 0.0 0
M  V30 13 C -7.7935 -4.5226 0.0 0
M  V30 END ATOM
M  V30 BEGIN BOND
M  V30 1 1 1 2
M  V30 2 2 2 3
M  V30 3 1 2 4
M  V30 4 1 3 5
M  V30 5 2 4 6
M  V30 6 1 5 7
M  V30 7 2 5 8
M  V30 8 2 7 9
M  V30 9 1 7 10
M  V30 10 1 10 11
M  V30 11 1 11 12
M  V30 12 1 12 13
M  V30 13 1 6 8
M  V30 END BOND
M  V30 END CTAB
M  END
>  <Molecule Name>
m-Chlorobenzoic acid, n-propyl ester

>  <Activity Label>
0

>  <SMILES>
CCCOC(c1cccc(Cl)c1)=O

>  <Molecular Formula>
C10H11O2Cl

>  <InChIKey>
HVJGKIOKRWTZLP-UHFFFAOYSA-N

>  <Repellency>
Inactive

>  <Reference DOI>
10.3390/toxics11100837

>  <Target Organism>
Not applied

$$$$
Compound 445
Actelion Java MolfileCreator 2.0

  0  0  0  0  0  0              0 V3000
M  V30 BEGIN CTAB
M  V30 COUNTS 13 13 0 0 0
M  V30 BEGIN ATOM
M  V30 1 Cl 0.0 0.0 0.0 0
M  V30 2 C 0.0 -1.4998 0.0 0
M  V30 3 C -1.2991 -2.2439 0.0 0
M  V30 4 C 1.2991 -2.2557 0.0 0
M  V30 5 O -2.5982 -1.4998 0.0 0
M  V30 6 C -1.2991 -3.7437 0.0 0
M  V30 7 C 1.2991 -3.7555 0.0 0
M  V30 8 C -3.8973 -2.2557 0.0 0
M  V30 9 C 0.0 -4.4996 0.0 0
M  V30 10 C 2.5982 -4.5114 0.0 0
M  V30 11 C -5.1964 -1.5116 0.0 0
M  V30 12 C 3.8973 -3.7674 0.0 0
M  V30 13 O -6.4955 -2.2675 0.0 0
M  V30 END ATOM
M  V30 BEGIN BOND
M  V30 1 1 1 2
M  V30 2 2 2 3
M  V30 3 1 2 4
M  V30 4 1 3 5
M  V30 5 1 3 6
M  V30 6 2 4 7
M  V30 7 1 5 8
M  V30 8 2 6 9
M  V30 9 1 7 10
M  V30 10 1 8 11
M  V30 11 1 10 12
M  V30 12 1 11 13
M  V30 13 1 7 9
M  V30 END BOND
M  V30 END CTAB
M  END
>  <Molecule Name>
2-(2-Chloro-4-ethyl-phenoxy)ethanol

>  <Activity Label>
0

>  <SMILES>
CCc(cc1)cc(Cl)c1OCCO

>  <Molecular Formula>
C10H13O2Cl

>  <InChIKey>
VBTZQKUDPUUIEE-UHFFFAOYSA-N

>  <Repellency>
Inactive

>  <Reference DOI>
10.3390/toxics11100837

>  <Target Organism>
Not applied

$$$$
Compound 446
Actelion Java MolfileCreator 2.0

  0  0  0  0  0  0              0 V3000
M  V30 BEGIN CTAB
M  V30 COUNTS 13 13 0 0 0
M  V30 BEGIN ATOM
M  V30 1 Br 0.0 0.0 0.0 0
M  V30 2 C 0.0 -1.4998 0.0 0
M  V30 3 C -1.2991 -2.2439 0.0 0
M  V30 4 C 1.2991 -2.2557 0.0 0
M  V30 5 O -2.5982 -1.4998 0.0 0
M  V30 6 C -1.2991 -3.7437 0.0 0
M  V30 7 C 1.2991 -3.7555 0.0 0
M  V30 8 C -3.8973 -2.2557 0.0 0
M  V30 9 C 0.0 -4.4996 0.0 0
M  V30 10 C 2.5982 -4.5114 0.0 0
M  V30 11 C -5.1964 -1.5116 0.0 0
M  V30 12 C 3.8973 -3.7674 0.0 0
M  V30 13 O -6.4955 -2.2675 0.0 0
M  V30 END ATOM
M  V30 BEGIN BOND
M  V30 1 1 1 2
M  V30 2 2 2 3
M  V30 3 1 2 4
M  V30 4 1 3 5
M  V30 5 1 3 6
M  V30 6 2 4 7
M  V30 7 1 5 8
M  V30 8 2 6 9
M  V30 9 1 7 10
M  V30 10 1 8 11
M  V30 11 1 10 12
M  V30 12 1 11 13
M  V30 13 1 7 9
M  V30 END BOND
M  V30 END CTAB
M  END
>  <Molecule Name>
2-(2-Bromo-4-ethylphenoxy)ethanol

>  <Activity Label>
0

>  <SMILES>
CCc(cc1)cc(Br)c1OCCO

>  <Molecular Formula>
C10H13O2Br

>  <InChIKey>
UDGAUOXQHHQMFD-UHFFFAOYSA-N

>  <Repellency>
Inactive

>  <Reference DOI>
10.3390/toxics11100837

>  <Target Organism>
Not applied

$$$$
Compound 447
Actelion Java MolfileCreator 2.0

  0  0  0  0  0  0              0 V3000
M  V30 BEGIN CTAB
M  V30 COUNTS 13 13 0 0 0
M  V30 BEGIN ATOM
M  V30 1 O 0.0 0.0 0.0 0
M  V30 2 C 1.301 0.7451 0.0 0
M  V30 3 C 2.6021 -0.0118 0.0 0
M  V30 4 C 3.9032 0.7333 0.0 0
M  V30 5 C 3.9032 2.2354 0.0 0
M  V30 6 C 5.2043 -0.0118 0.0 0
M  V30 7 C 5.2043 2.9806 0.0 0
M  V30 8 C 6.5053 0.7333 0.0 0
M  V30 9 C 6.5053 2.2236 0.0 0
M  V30 10 C 7.8064 2.9688 0.0 0
M  V30 11 C 9.1075 2.2236 0.0 0
M  V30 12 C 10.4086 2.9688 0.0 0
M  V30 13 C 9.1075 0.7215 0.0 0
M  V30 END ATOM
M  V30 BEGIN BOND
M  V30 1 1 1 2
M  V30 2 1 2 3
M  V30 3 1 3 4
M  V30 4 2 4 5
M  V30 5 1 4 6
M  V30 6 1 5 7
M  V30 7 2 6 8
M  V30 8 2 7 9
M  V30 9 1 9 10
M  V30 10 1 10 11
M  V30 11 1 11 12
M  V30 12 1 11 13
M  V30 13 1 8 9
M  V30 END BOND
M  V30 END CTAB
M  END
>  <Molecule Name>
p-iso-Butylphenethyl alcohol

>  <Activity Label>
0

>  <SMILES>
CC(C)Cc1ccc(CCO)cc1

>  <Molecular Formula>
C12H18O

>  <InChIKey>
CBKUDUSUCXBKIE-UHFFFAOYSA-N

>  <Repellency>
Inactive

>  <Reference DOI>
10.3390/toxics11100837

>  <Target Organism>
Not applied

$$$$
Compound 448
Actelion Java MolfileCreator 2.0

  0  0  0  0  0  0              0 V3000
M  V30 BEGIN CTAB
M  V30 COUNTS 13 13 0 0 0
M  V30 BEGIN ATOM
M  V30 1 O 0.0 0.0 0.0 0
M  V30 2 C 1.2991 0.744 0.0 0
M  V30 3 C 2.5982 -0.0118 0.0 0
M  V30 4 C 3.8973 0.7322 0.0 0
M  V30 5 C 3.8973 2.2321 0.0 0
M  V30 6 C 5.1964 -0.0236 0.0 0
M  V30 7 C 5.1964 2.9761 0.0 0
M  V30 8 C 2.5982 2.9761 0.0 0
M  V30 9 C 6.4955 0.7204 0.0 0
M  V30 10 C 6.4955 2.2321 0.0 0
M  V30 11 C 7.7946 -0.0354 0.0 0
M  V30 12 C 7.7946 -1.5353 0.0 0
M  V30 13 C 9.0937 0.7086 0.0 0
M  V30 END ATOM
M  V30 BEGIN BOND
M  V30 1 1 1 2
M  V30 2 1 2 3
M  V30 3 1 3 4
M  V30 4 2 4 5
M  V30 5 1 4 6
M  V30 6 1 5 7
M  V30 7 1 5 8
M  V30 8 2 6 9
M  V30 9 2 7 10
M  V30 10 1 9 11
M  V30 11 1 11 12
M  V30 12 1 11 13
M  V30 13 1 9 10
M  V30 END BOND
M  V30 END CTAB
M  END
>  <Molecule Name>
2-Methyl-5-iso-propylphenethyl alcohol

>  <Activity Label>
0

>  <SMILES>
CC(C)c1cc(CCO)c(C)cc1

>  <Molecular Formula>
C12H18O

>  <InChIKey>
ROEYRLSDTVQQEG-UHFFFAOYSA-N

>  <Repellency>
Inactive

>  <Reference DOI>
10.3390/toxics11100837

>  <Target Organism>
Not applied

$$$$
Compound 449
Actelion Java MolfileCreator 2.0

  0  0  0  0  0  0              0 V3000
M  V30 BEGIN CTAB
M  V30 COUNTS 13 13 0 0 0
M  V30 BEGIN ATOM
M  V30 1 O 0.0 0.0 0.0 0
M  V30 2 C 1.2987 0.7438 0.0 0
M  V30 3 C -1.2987 0.7438 0.0 0
M  V30 4 C 2.5974 -0.0118 0.0 0
M  V30 5 C -2.5974 -0.0118 0.0 0
M  V30 6 C 2.5974 -1.5112 0.0 0
M  V30 7 C 3.8961 0.732 0.0 0
M  V30 8 C -3.8961 0.732 0.0 0
M  V30 9 C 3.8961 -2.2668 0.0 0
M  V30 10 C 5.1948 -0.0118 0.0 0
M  V30 11 C -3.8961 2.2314 0.0 0
M  V30 12 C -5.1948 -0.0236 0.0 0
M  V30 13 C 5.1948 -1.523 0.0 0
M  V30 END ATOM
M  V30 BEGIN BOND
M  V30 1 1 1 2
M  V30 2 1 1 3
M  V30 3 1 2 4
M  V30 4 1 3 5
M  V30 5 2 4 6
M  V30 6 1 4 7
M  V30 7 1 5 8
M  V30 8 1 6 9
M  V30 9 2 7 10
M  V30 10 1 8 11
M  V30 11 1 8 12
M  V30 12 2 9 13
M  V30 13 1 10 13
M  V30 END BOND
M  V30 END CTAB
M  END
>  <Molecule Name>
iso-Amyl benzyl ether

>  <Activity Label>
0

>  <SMILES>
CC(C)CCOCc1ccccc1

>  <Molecular Formula>
C12H18O

>  <InChIKey>
RXXCIBALSKQCAE-UHFFFAOYSA-N

>  <Repellency>
Inactive

>  <Reference DOI>
10.3390/toxics11100837

>  <Target Organism>
Not applied

$$$$
Compound 450
Actelion Java MolfileCreator 2.0

  0  0  0  0  0  0              0 V3000
M  V30 BEGIN CTAB
M  V30 COUNTS 13 13 0 0 0
M  V30 BEGIN ATOM
M  V30 1 O 0.0 0.0 0.0 0
M  V30 2 C 1.2977 0.755 0.0 0
M  V30 3 C -1.2977 0.755 0.0 0
M  V30 4 C 2.5954 0.0 0.0 0
M  V30 5 C 1.2977 2.2533 0.0 0
M  V30 6 C -2.5954 0.0 0.0 0
M  V30 7 C 3.8931 0.7432 0.0 0
M  V30 8 C 2.5954 2.9965 0.0 0
M  V30 9 C -3.8931 0.755 0.0 0
M  V30 10 C 3.8931 2.2415 0.0 0
M  V30 11 C -5.1908 0.0 0.0 0
M  V30 12 C -6.4886 0.755 0.0 0
M  V30 13 C -7.7863 0.0 0.0 0
M  V30 END ATOM
M  V30 BEGIN BOND
M  V30 1 1 1 2
M  V30 2 1 1 3
M  V30 3 2 2 4
M  V30 4 1 2 5
M  V30 5 1 3 6
M  V30 6 1 4 7
M  V30 7 2 5 8
M  V30 8 1 6 9
M  V30 9 2 7 10
M  V30 10 1 9 11
M  V30 11 1 11 12
M  V30 12 1 12 13
M  V30 13 1 8 10
M  V30 END BOND
M  V30 END CTAB
M  END
>  <Molecule Name>
Hexyl phenyl ether

>  <Activity Label>
0

>  <SMILES>
CCCCCCOc1ccccc1

>  <Molecular Formula>
C12H18O

>  <InChIKey>
KNRQFACTBMDELK-UHFFFAOYSA-N

>  <Repellency>
Inactive

>  <Reference DOI>
10.3390/toxics11100837

>  <Target Organism>
Not applied

$$$$
Compound 451
Actelion Java MolfileCreator 2.0

  0  0  0  0  0  0              0 V3000
M  V30 BEGIN CTAB
M  V30 COUNTS 13 13 0 0 0
M  V30 BEGIN ATOM
M  V30 1 O 0.0 0.0 0.0 0
M  V30 2 C -1.3004 -0.7448 0.0 0
M  V30 3 C 1.3004 -0.7448 0.0 0
M  V30 4 C -2.6009 0.0118 0.0 0
M  V30 5 C -1.3004 -2.2462 0.0 0
M  V30 6 C 2.6009 0.0 0.0 0
M  V30 7 C -3.9014 -0.7329 0.0 0
M  V30 8 C -2.6009 -2.991 0.0 0
M  V30 9 C -3.9014 -2.2344 0.0 0
M  V30 10 C -5.2018 -2.9792 0.0 0
M  V30 11 C -4.457 -4.2797 0.0 0
M  V30 12 C -6.5023 -3.724 0.0 0
M  V30 13 C -5.9467 -1.6787 0.0 0
M  V30 END ATOM
M  V30 BEGIN BOND
M  V30 1 1 1 2
M  V30 2 1 1 3
M  V30 3 2 2 4
M  V30 4 1 2 5
M  V30 5 2 3 6
M  V30 6 1 4 7
M  V30 7 2 5 8
M  V30 8 2 7 9
M  V30 9 1 9 10
M  V30 10 1 10 11
M  V30 11 1 10 12
M  V30 12 1 10 13
M  V30 13 1 8 9
M  V30 END BOND
M  V30 END CTAB
M  END
>  <Molecule Name>
4-tert-Butylphenyl vinyl ether

>  <Activity Label>
0

>  <SMILES>
CC(C)(C)c(cc1)ccc1OC=C

>  <Molecular Formula>
C12H16O

>  <InChIKey>
BFVTULXNNTYOAV-UHFFFAOYSA-N

>  <Repellency>
Inactive

>  <Reference DOI>
10.3390/toxics11100837

>  <Target Organism>
Not applied

$$$$
Compound 452
Actelion Java MolfileCreator 2.0

  0  0  0  0  0  0              0 V3000
M  V30 BEGIN CTAB
M  V30 COUNTS 13 13 0 0 0
M  V30 BEGIN ATOM
M  V30 1 O 0.0 0.0 0.0 0
M  V30 2 C -1.2981 -0.7552 0.0 0
M  V30 3 C 1.2981 -0.7552 0.0 0
M  V30 4 C -2.5962 -0.0118 0.0 0
M  V30 5 C -1.2981 -2.2539 0.0 0
M  V30 6 C -3.8943 -0.767 0.0 0
M  V30 7 C -2.5962 -3.0092 0.0 0
M  V30 8 C -3.8943 -2.2657 0.0 0
M  V30 9 C -5.1924 -3.021 0.0 0
M  V30 10 C -6.4905 -2.2775 0.0 0
M  V30 11 C -5.9477 -4.3191 0.0 0
M  V30 12 C -4.4371 -4.3191 0.0 0
M  V30 13 C -7.7886 -3.0328 0.0 0
M  V30 END ATOM
M  V30 BEGIN BOND
M  V30 1 1 1 2
M  V30 2 1 1 3
M  V30 3 2 2 4
M  V30 4 1 2 5
M  V30 5 1 4 6
M  V30 6 2 5 7
M  V30 7 2 6 8
M  V30 8 1 8 9
M  V30 9 1 9 10
M  V30 10 1 9 11
M  V30 11 1 9 12
M  V30 12 1 10 13
M  V30 13 1 7 8
M  V30 END BOND
M  V30 END CTAB
M  END
>  <Molecule Name>
p-tert-Amylphenyl methyl ether

>  <Activity Label>
0

>  <SMILES>
CCC(C)(C)c(cc1)ccc1OC

>  <Molecular Formula>
C12H18O

>  <InChIKey>
BBKHJZSTQDGANW-UHFFFAOYSA-N

>  <Repellency>
Inactive

>  <Reference DOI>
10.3390/toxics11100837

>  <Target Organism>
Not applied

$$$$
Compound 453
Actelion Java MolfileCreator 2.0

  0  0  0  0  0  0              0 V3000
M  V30 BEGIN CTAB
M  V30 COUNTS 13 13 0 0 0
M  V30 BEGIN ATOM
M  V30 1 O 0.0 0.0 0.0 0
M  V30 2 C 1.3002 -0.7565 0.0 0
M  V30 3 C 0.0 1.5012 0.0 0
M  V30 4 C 1.3002 -2.2577 0.0 0
M  V30 5 C 2.6005 -0.0118 0.0 0
M  V30 6 C 2.6005 -3.0143 0.0 0
M  V30 7 C 0.0 -3.0024 0.0 0
M  V30 8 C 3.9008 -0.7683 0.0 0
M  V30 9 C 3.9008 -2.2577 0.0 0
M  V30 10 C 0.7447 -4.3027 0.0 0
M  V30 11 C -1.3002 -3.7471 0.0 0
M  V30 12 C -0.7447 -1.7021 0.0 0
M  V30 13 C 5.2011 -0.0236 0.0 0
M  V30 END ATOM
M  V30 BEGIN BOND
M  V30 1 1 1 2
M  V30 2 1 1 3
M  V30 3 2 2 4
M  V30 4 1 2 5
M  V30 5 1 4 6
M  V30 6 1 4 7
M  V30 7 2 5 8
M  V30 8 2 6 9
M  V30 9 1 7 10
M  V30 10 1 7 11
M  V30 11 1 7 12
M  V30 12 1 8 13
M  V30 13 1 8 9
M  V30 END BOND
M  V30 END CTAB
M  END
>  <Molecule Name>
3-Methyl-6-tert-butylanisole

>  <Activity Label>
0

>  <SMILES>
CC(C)(C)c(ccc(C)c1)c1OC

>  <Molecular Formula>
C12H18O

>  <InChIKey>
NFDFEFJTYRAHEM-UHFFFAOYSA-N

>  <Repellency>
Inactive

>  <Reference DOI>
10.3390/toxics11100837

>  <Target Organism>
Not applied

$$$$
Compound 454
Actelion Java MolfileCreator 2.0

  0  0  0  0  0  0              0 V3000
M  V30 BEGIN CTAB
M  V30 COUNTS 13 13 0 0 0
M  V30 BEGIN ATOM
M  V30 1 O 0.0 0.0 0.0 0
M  V30 2 C 0.0 -1.5019 0.0 0
M  V30 3 C 1.3008 -2.2469 0.0 0
M  V30 4 C -1.3008 -2.2469 0.0 0
M  V30 5 C 2.6017 -1.5019 0.0 0
M  V30 6 C -2.6017 -1.5019 0.0 0
M  V30 7 C 3.9026 -2.2469 0.0 0
M  V30 8 C 2.6017 0.0 0.0 0
M  V30 9 C -2.6017 0.0 0.0 0
M  V30 10 C -3.9026 -2.2469 0.0 0
M  V30 11 C 5.2035 -1.5019 0.0 0
M  V30 12 C 3.9026 0.745 0.0 0
M  V30 13 C 5.2035 0.0 0.0 0
M  V30 END ATOM
M  V30 BEGIN BOND
M  V30 1 2 1 2
M  V30 2 1 2 3
M  V30 3 1 2 4
M  V30 4 1 3 5
M  V30 5 1 4 6
M  V30 6 2 5 7
M  V30 7 1 5 8
M  V30 8 1 6 9
M  V30 9 1 6 10
M  V30 10 1 7 11
M  V30 11 2 8 12
M  V30 12 2 11 13
M  V30 13 1 12 13
M  V30 END BOND
M  V30 END CTAB
M  END
>  <Molecule Name>
iso-Butyl benzyl ketone

>  <Activity Label>
0

>  <SMILES>
CC(C)CC(Cc1ccccc1)=O

>  <Molecular Formula>
C12H16O

>  <InChIKey>
DTYGTEGDVPAKDA-UHFFFAOYSA-N

>  <Repellency>
Inactive

>  <Reference DOI>
10.3390/toxics11100837

>  <Target Organism>
Not applied

$$$$
Compound 455
Actelion Java MolfileCreator 2.0

  0  0  0  0  0  0              0 V3000
M  V30 BEGIN CTAB
M  V30 COUNTS 13 13 0 0 0
M  V30 BEGIN ATOM
M  V30 1 O 0.0 0.0 0.0 0
M  V30 2 C 1.3004 0.7448 0.0 0
M  V30 3 C 1.3004 2.2463 0.0 0
M  V30 4 C 2.6009 0.0 0.0 0
M  V30 5 C 2.6009 2.9911 0.0 0
M  V30 6 C 0.0 3.0029 0.0 0
M  V30 7 C 3.9014 0.7448 0.0 0
M  V30 8 C 3.9014 2.2344 0.0 0
M  V30 9 C 2.6009 4.4926 0.0 0
M  V30 10 C 5.2019 2.9793 0.0 0
M  V30 11 C 5.2019 1.4778 0.0 0
M  V30 12 C 6.5024 2.2344 0.0 0
M  V30 13 C 5.2019 -0.0236 0.0 0
M  V30 END ATOM
M  V30 BEGIN BOND
M  V30 1 2 1 2
M  V30 2 1 2 3
M  V30 3 1 2 4
M  V30 4 2 3 5
M  V30 5 1 3 6
M  V30 6 1 4 7
M  V30 7 1 5 8
M  V30 8 1 5 9
M  V30 9 1 8 10
M  V30 10 1 8 11
M  V30 11 1 10 12
M  V30 12 1 11 13
M  V30 13 1 7 8
M  V30 END BOND
M  V30 END CTAB
M  END
>  <Molecule Name>
Diethyldimethylcyclohexenone

>  <Activity Label>
0

>  <SMILES>
CCC(CC)(CC1)C(C)=C(C)C1=O

>  <Molecular Formula>
C12H20O

>  <InChIKey>
RDVUCTBZJIBYRD-UHFFFAOYSA-N

>  <Repellency>
Inactive

>  <Reference DOI>
10.3390/toxics11100837

>  <Target Organism>
Not applied

$$$$
Compound 456
Actelion Java MolfileCreator 2.0

  0  0  0  0  0  0              0 V3000
M  V30 BEGIN CTAB
M  V30 COUNTS 13 13 0 0 0
M  V30 BEGIN ATOM
M  V30 1 O 0.0 0.0 0.0 0
M  V30 2 C 0.0 -1.5001 0.0 0
M  V30 3 C 1.2993 -2.256 0.0 0
M  V30 4 C -1.2993 -2.2442 0.0 0
M  V30 5 C 1.2993 -3.7561 0.0 0
M  V30 6 C 2.5986 -1.5119 0.0 0
M  V30 7 C 2.5986 -3.012 0.0 0
M  V30 8 C -1.2993 -3.7443 0.0 0
M  V30 9 C 0.0 -4.5003 0.0 0
M  V30 10 C 3.8979 -2.256 0.0 0
M  V30 11 C 2.5986 -4.5121 0.0 0
M  V30 12 C 5.1972 -1.5119 0.0 0
M  V30 13 C 3.8979 -5.2681 0.0 0
M  V30 END ATOM
M  V30 BEGIN BOND
M  V30 1 2 1 2
M  V30 2 1 2 3
M  V30 3 1 2 4
M  V30 4 1 3 5
M  V30 5 1 3 6
M  V30 6 1 3 7
M  V30 7 1 4 8
M  V30 8 1 5 9
M  V30 9 1 6 10
M  V30 10 1 7 11
M  V30 11 2 10 12
M  V30 12 2 11 13
M  V30 13 1 8 9
M  V30 END BOND
M  V30 END CTAB
M  END
>  <Molecule Name>
2,2-Diallylcyclohexanone

>  <Activity Label>
0

>  <SMILES>
C=CCC(CC=C)(CCCC1)C1=O

>  <Molecular Formula>
C12H18O

>  <InChIKey>
QFSGLPBMYINTJA-UHFFFAOYSA-N

>  <Repellency>
Inactive

>  <Reference DOI>
10.3390/toxics11100837

>  <Target Organism>
Not applied

$$$$
Compound 457
Actelion Java MolfileCreator 2.0

  0  0  0  0  0  0              0 V3000
M  V30 BEGIN CTAB
M  V30 COUNTS 13 13 0 0 0
M  V30 BEGIN ATOM
M  V30 1 O 0.0 0.0 0.0 0
M  V30 2 C 0.0 -1.5001 0.0 0
M  V30 3 C 1.2993 -2.256 0.0 0
M  V30 4 C -1.2993 -2.2442 0.0 0
M  V30 5 C 1.2993 -3.7561 0.0 0
M  V30 6 C 2.5986 -1.5119 0.0 0
M  V30 7 C 2.5986 -3.012 0.0 0
M  V30 8 C -1.2993 -3.7443 0.0 0
M  V30 9 C 0.0 -4.5003 0.0 0
M  V30 10 C 3.8979 -2.256 0.0 0
M  V30 11 C 2.5986 -4.5121 0.0 0
M  V30 12 C 5.1972 -1.5119 0.0 0
M  V30 13 C 3.8979 -5.2681 0.0 0
M  V30 END ATOM
M  V30 BEGIN BOND
M  V30 1 2 1 2
M  V30 2 1 2 3
M  V30 3 1 2 4
M  V30 4 1 3 5
M  V30 5 1 3 6
M  V30 6 1 3 7
M  V30 7 1 4 8
M  V30 8 1 5 9
M  V30 9 1 6 10
M  V30 10 1 7 11
M  V30 11 1 10 12
M  V30 12 1 11 13
M  V30 13 1 8 9
M  V30 END BOND
M  V30 END CTAB
M  END
>  <Molecule Name>
2, 2-Dipropylcyclohexanone

>  <Activity Label>
0

>  <SMILES>
CCCC(CCC)(CCCC1)C1=O

>  <Molecular Formula>
C12H22O

>  <InChIKey>
JVANTSALPQTEBY-UHFFFAOYSA-N

>  <Repellency>
Inactive

>  <Reference DOI>
10.3390/toxics11100837

>  <Target Organism>
Not applied

$$$$
Compound 458
Actelion Java MolfileCreator 2.0

  0  0  0  0  0  0              0 V3000
M  V30 BEGIN CTAB
M  V30 COUNTS 13 13 0 0 0
M  V30 BEGIN ATOM
M  V30 1 O 0.0 0.0 0.0 0
M  V30 2 C -1.301 -0.7451 0.0 0
M  V30 3 C 1.301 -0.7451 0.0 0
M  V30 4 C -1.301 -2.2473 0.0 0
M  V30 5 C -2.6021 0.0 0.0 0
M  V30 6 C 2.6021 0.0 0.0 0
M  V30 7 C 0.0 -2.9924 0.0 0
M  V30 8 C -3.9032 -0.7451 0.0 0
M  V30 9 C 3.9032 -0.7451 0.0 0
M  V30 10 C 2.6021 1.5021 0.0 0
M  V30 11 C 5.2043 0.0 0.0 0
M  V30 12 C 3.9032 2.2473 0.0 0
M  V30 13 C 5.2043 1.5021 0.0 0
M  V30 END ATOM
M  V30 BEGIN BOND
M  V30 1 1 1 2
M  V30 2 1 1 3
M  V30 3 1 2 4
M  V30 4 1 2 5
M  V30 5 1 3 6
M  V30 6 1 4 7
M  V30 7 1 5 8
M  V30 8 2 6 9
M  V30 9 1 6 10
M  V30 10 1 9 11
M  V30 11 2 10 12
M  V30 12 2 11 13
M  V30 13 1 12 13
M  V30 END BOND
M  V30 END CTAB
M  END
>  <Molecule Name>
3-Pentyl benzyl ether

>  <Activity Label>
0

>  <SMILES>
CCC(CC)OCc1ccccc1

>  <Molecular Formula>
C12H18O

>  <InChIKey>
ATBMBRQZHVFRDH-UHFFFAOYSA-N

>  <Repellency>
Inactive

>  <Reference DOI>
10.3390/toxics11100837

>  <Target Organism>
Not applied

$$$$
Compound 459
Actelion Java MolfileCreator 2.0

  0  0  0  0  0  0              0 V3000
M  V30 BEGIN CTAB
M  V30 COUNTS 13 13 0 0 0
M  V30 BEGIN ATOM
M  V30 1 Cl 0.0 0.0 0.0 0
M  V30 2 C 1.3008 0.745 0.0 0
M  V30 3 C 2.6017 0.0 0.0 0
M  V30 4 C 1.3008 2.2469 0.0 0
M  V30 5 Cl 2.6017 -1.5019 0.0 0
M  V30 6 C 3.9026 0.745 0.0 0
M  V30 7 C 2.6017 2.992 0.0 0
M  V30 8 C 3.9026 2.2469 0.0 0
M  V30 9 Cl 2.6017 4.4939 0.0 0
M  V30 10 O 5.2035 2.992 0.0 0
M  V30 11 C 6.5044 2.2469 0.0 0
M  V30 12 C 7.8053 2.992 0.0 0
M  V30 13 C 9.1062 2.2469 0.0 0
M  V30 END ATOM
M  V30 BEGIN BOND
M  V30 1 1 1 2
M  V30 2 2 2 3
M  V30 3 1 2 4
M  V30 4 1 3 5
M  V30 5 1 3 6
M  V30 6 2 4 7
M  V30 7 2 6 8
M  V30 8 1 7 9
M  V30 9 1 8 10
M  V30 10 1 10 11
M  V30 11 1 11 12
M  V30 12 2 12 13
M  V30 13 1 7 8
M  V30 END BOND
M  V30 END CTAB
M  END
>  <Molecule Name>
2,4,5-Trichlorophenyl allyl ether

>  <Activity Label>
0

>  <SMILES>
C=CCOc(c(Cl)c1)cc(Cl)c1Cl

>  <Molecular Formula>
C9H7OCl3

>  <InChIKey>
LFKZFXYGYCWQES-UHFFFAOYSA-N

>  <Repellency>
Inactive

>  <Reference DOI>
10.3390/toxics11100837

>  <Target Organism>
Not applied

$$$$
Compound 460
Actelion Java MolfileCreator 2.0

  0  0  0  0  0  0              0 V3000
M  V30 BEGIN CTAB
M  V30 COUNTS 13 13 0 0 0
M  V30 BEGIN ATOM
M  V30 1 O 0.0 0.0 0.0 0
M  V30 2 C 0.0 -1.501 0.0 0
M  V30 3 C -1.3001 -2.2456 0.0 0
M  V30 4 C 1.3001 -2.2456 0.0 0
M  V30 5 C -2.6002 -1.501 0.0 0
M  V30 6 C -1.3001 -3.7466 0.0 0
M  V30 7 C -3.9003 -2.2456 0.0 0
M  V30 8 C -2.6002 -4.503 0.0 0
M  V30 9 O -5.2004 -1.501 0.0 0
M  V30 10 C -3.9003 -3.7466 0.0 0
M  V30 11 C -6.5005 -2.2456 0.0 0
M  V30 12 O -5.2004 -4.4912 0.0 0
M  V30 13 C -5.2004 -5.9922 0.0 0
M  V30 END ATOM
M  V30 BEGIN BOND
M  V30 1 2 1 2
M  V30 2 1 2 3
M  V30 3 1 2 4
M  V30 4 2 3 5
M  V30 5 1 3 6
M  V30 6 1 5 7
M  V30 7 2 6 8
M  V30 8 1 7 9
M  V30 9 2 7 10
M  V30 10 1 9 11
M  V30 11 1 10 12
M  V30 12 1 12 13
M  V30 13 1 8 10
M  V30 END BOND
M  V30 END CTAB
M  END
>  <Molecule Name>
Acetoveratrone

>  <Activity Label>
0

>  <SMILES>
CC(c(cc1)cc(OC)c1OC)=O

>  <Molecular Formula>
C10H12O3

>  <InChIKey>
IQZLUWLMQNGTIW-UHFFFAOYSA-N

>  <Repellency>
Inactive

>  <Reference DOI>
10.3390/toxics11100837

>  <Target Organism>
Not applied

$$$$
Compound 461
Actelion Java MolfileCreator 2.0

  0  0  0  0  0  0              0 V3000
M  V30 BEGIN CTAB
M  V30 COUNTS 13 13 0 0 0
M  V30 BEGIN ATOM
M  V30 1 O 0.0 0.0 0.0 0
M  V30 2 C 0.0 1.5019 0.0 0
M  V30 3 O -1.3008 2.2469 0.0 0
M  V30 4 C 1.3008 2.2469 0.0 0
M  V30 5 C -2.6017 1.5019 0.0 0
M  V30 6 C 2.6017 1.5019 0.0 0
M  V30 7 C 1.3008 3.7489 0.0 0
M  V30 8 C -3.9026 2.2469 0.0 0
M  V30 9 O 2.6017 0.0 0.0 0
M  V30 10 C 3.9026 2.2469 0.0 0
M  V30 11 C 2.6017 4.4939 0.0 0
M  V30 12 C -5.2035 1.5019 0.0 0
M  V30 13 C 3.9026 3.7489 0.0 0
M  V30 END ATOM
M  V30 BEGIN BOND
M  V30 1 2 1 2
M  V30 2 1 2 3
M  V30 3 1 2 4
M  V30 4 1 3 5
M  V30 5 2 4 6
M  V30 6 1 4 7
M  V30 7 1 5 8
M  V30 8 1 6 9
M  V30 9 1 6 10
M  V30 10 2 7 11
M  V30 11 2 8 12
M  V30 12 2 10 13
M  V30 13 1 11 13
M  V30 END BOND
M  V30 END CTAB
M  END
>  <Molecule Name>
Salicylic acid, allyl ester

>  <Activity Label>
0

>  <SMILES>
C=CCOC(c(cccc1)c1O)=O

>  <Molecular Formula>
C10H10O3

>  <InChIKey>
YYKBLDCLPBWOOE-UHFFFAOYSA-N

>  <Repellency>
Inactive

>  <Reference DOI>
10.3390/toxics11100837

>  <Target Organism>
Not applied

$$$$
Compound 462
Actelion Java MolfileCreator 2.0

  0  0  0  0  0  0              0 V3000
M  V30 BEGIN CTAB
M  V30 COUNTS 13 13 0 0 0
M  V30 BEGIN ATOM
M  V30 1 O 0.0 0.0 0.0 0
M  V30 2 C 0.0 -1.4996 0.0 0
M  V30 3 O -1.2989 -2.2553 0.0 0
M  V30 4 C 1.2989 -2.2553 0.0 0 CFG=2
M  V30 5 O 2.5978 -1.5114 0.0 0
M  V30 6 C 1.2989 -3.755 0.0 0
M  V30 7 C 3.8967 -2.2672 0.0 0
M  V30 8 C 0.0 -4.4989 0.0 0
M  V30 9 C 2.5978 -4.5107 0.0 0
M  V30 10 C 5.1956 -1.5232 0.0 0
M  V30 11 C 0.0 -5.9986 0.0 0
M  V30 12 C 2.5978 -6.0104 0.0 0
M  V30 13 C 1.2989 -6.7543 0.0 0
M  V30 END ATOM
M  V30 BEGIN BOND
M  V30 1 2 1 2
M  V30 2 1 2 3
M  V30 3 1 2 4
M  V30 4 1 4 5 CFG=3
M  V30 5 1 4 6
M  V30 6 1 5 7
M  V30 7 2 6 8
M  V30 8 1 6 9
M  V30 9 1 7 10
M  V30 10 1 8 11
M  V30 11 2 9 12
M  V30 12 2 11 13
M  V30 13 1 12 13
M  V30 END BOND
M  V30 BEGIN COLLECTION
M  V30 MDLV30/STERAC1 ATOMS=(1 4)
M  V30 END COLLECTION
M  V30 END CTAB
M  END
>  <Molecule Name>
alpha-Ethoxy-alpha-toluic acid

>  <Activity Label>
0

>  <SMILES>
CCOC(C(O)=O)c1ccccc1

>  <Molecular Formula>
C10H12O3

>  <InChIKey>
XBLYVSAKBBNYDO-UHFFFAOYSA-N

>  <Repellency>
Inactive

>  <Reference DOI>
10.3390/toxics11100837

>  <Target Organism>
Not applied

$$$$
Compound 463
Actelion Java MolfileCreator 2.0

  0  0  0  0  0  0              0 V3000
M  V30 BEGIN CTAB
M  V30 COUNTS 13 13 0 0 0
M  V30 BEGIN ATOM
M  V30 1 O 0.0 0.0 0.0 0
M  V30 2 C 0.0 1.5019 0.0 0
M  V30 3 O -1.3008 2.2469 0.0 0
M  V30 4 C 1.3008 2.2469 0.0 0
M  V30 5 C -2.6017 1.5019 0.0 0
M  V30 6 C 2.6017 1.5019 0.0 0
M  V30 7 C 1.3008 3.7489 0.0 0
M  V30 8 C -3.9026 2.2469 0.0 0
M  V30 9 C 3.9026 2.2469 0.0 0
M  V30 10 C 2.6017 4.4939 0.0 0
M  V30 11 O -3.9026 3.7489 0.0 0
M  V30 12 C -5.2035 1.5019 0.0 0
M  V30 13 C 3.9026 3.7489 0.0 0
M  V30 END ATOM
M  V30 BEGIN BOND
M  V30 1 2 1 2
M  V30 2 1 2 3
M  V30 3 1 2 4
M  V30 4 1 3 5
M  V30 5 2 4 6
M  V30 6 1 4 7
M  V30 7 1 5 8
M  V30 8 1 6 9
M  V30 9 2 7 10
M  V30 10 2 8 11
M  V30 11 1 8 12
M  V30 12 2 9 13
M  V30 13 1 10 13
M  V30 END BOND
M  V30 END CTAB
M  END
>  <Molecule Name>
Benzoic acid, acetonyl ester

>  <Activity Label>
0

>  <SMILES>
CC(COC(c1ccccc1)=O)=O

>  <Molecular Formula>
C10H10O3

>  <InChIKey>
JJANSRGIKCRCFG-UHFFFAOYSA-N

>  <Repellency>
Inactive

>  <Reference DOI>
10.3390/toxics11100837

>  <Target Organism>
Not applied

$$$$
Compound 464
Actelion Java MolfileCreator 2.0

  0  0  0  0  0  0              0 V3000
M  V30 BEGIN CTAB
M  V30 COUNTS 13 13 0 0 0
M  V30 BEGIN ATOM
M  V30 1 O 0.0 0.0 0.0 0
M  V30 2 C 0.0 1.5019 0.0 0
M  V30 3 O -1.3008 2.2469 0.0 0
M  V30 4 C 1.3008 2.2469 0.0 0
M  V30 5 C -2.6017 1.5019 0.0 0
M  V30 6 C 2.6017 1.5019 0.0 0
M  V30 7 C 1.3008 3.7489 0.0 0
M  V30 8 C -3.9026 2.2469 0.0 0 CFG=1
M  V30 9 C 3.9026 2.2469 0.0 0
M  V30 10 C 2.6017 4.4939 0.0 0
M  V30 11 O -5.2035 1.5019 0.0 0
M  V30 12 C -3.9026 3.7489 0.0 0
M  V30 13 C 3.9026 3.7489 0.0 0
M  V30 END ATOM
M  V30 BEGIN BOND
M  V30 1 2 1 2
M  V30 2 1 2 3
M  V30 3 1 2 4
M  V30 4 1 3 5
M  V30 5 2 4 6
M  V30 6 1 4 7
M  V30 7 1 5 8
M  V30 8 1 6 9
M  V30 9 2 7 10
M  V30 10 1 8 11 CFG=1
M  V30 11 1 8 12
M  V30 12 2 9 13
M  V30 13 1 10 13
M  V30 END BOND
M  V30 BEGIN COLLECTION
M  V30 MDLV30/STERAC1 ATOMS=(1 8)
M  V30 END COLLECTION
M  V30 END CTAB
M  END
>  <Molecule Name>
Benzoic acid, 2-hydroxypropyl ester

>  <Activity Label>
0

>  <SMILES>
CC(COC(c1ccccc1)=O)O

>  <Molecular Formula>
C10H12O3

>  <InChIKey>
SCYRDAWUOAHQIE-UHFFFAOYSA-N

>  <Repellency>
Inactive

>  <Reference DOI>
10.3390/toxics11100837

>  <Target Organism>
Not applied

$$$$
Compound 465
Actelion Java MolfileCreator 2.0

  0  0  0  0  0  0              0 V3000
M  V30 BEGIN CTAB
M  V30 COUNTS 13 13 0 0 0
M  V30 BEGIN ATOM
M  V30 1 O 0.0 0.0 0.0 0
M  V30 2 C 0.0 -1.4996 0.0 0
M  V30 3 O -1.2989 -2.2553 0.0 0
M  V30 4 C 1.2989 -2.2553 0.0 0
M  V30 5 C -2.5978 -1.5114 0.0 0
M  V30 6 C 1.2989 -3.755 0.0 0
M  V30 7 C 2.5978 -1.5114 0.0 0
M  V30 8 C -2.5978 -0.0118 0.0 0
M  V30 9 C -3.8967 -2.2672 0.0 0
M  V30 10 O 0.0 -4.4989 0.0 0
M  V30 11 C 2.5978 -4.5107 0.0 0
M  V30 12 C 3.8967 -2.2672 0.0 0
M  V30 13 C 3.8967 -3.7668 0.0 0
M  V30 END ATOM
M  V30 BEGIN BOND
M  V30 1 2 1 2
M  V30 2 1 2 3
M  V30 3 1 2 4
M  V30 4 1 3 5
M  V30 5 2 4 6
M  V30 6 1 4 7
M  V30 7 1 5 8
M  V30 8 1 5 9
M  V30 9 1 6 10
M  V30 10 1 6 11
M  V30 11 2 7 12
M  V30 12 2 11 13
M  V30 13 1 12 13
M  V30 END BOND
M  V30 END CTAB
M  END
>  <Molecule Name>
Salicylic acid, iso-propyl ester

>  <Activity Label>
0

>  <SMILES>
CC(C)OC(c(cccc1)c1O)=O

>  <Molecular Formula>
C10H12O3

>  <InChIKey>
YEULQIJMIOWCHB-UHFFFAOYSA-N

>  <Repellency>
Inactive

>  <Reference DOI>
10.3390/toxics11100837

>  <Target Organism>
Not applied

$$$$
Compound 466
Actelion Java MolfileCreator 2.0

  0  0  0  0  0  0              0 V3000
M  V30 BEGIN CTAB
M  V30 COUNTS 13 13 0 0 0
M  V30 BEGIN ATOM
M  V30 1 O 0.0 0.0 0.0 0
M  V30 2 C 0.0 -1.4989 0.0 0
M  V30 3 O -1.2983 -2.2543 0.0 0
M  V30 4 C 1.2983 -2.2543 0.0 0
M  V30 5 C -2.5966 -1.5107 0.0 0
M  V30 6 O 2.5966 -1.5107 0.0 0
M  V30 7 C -3.8949 -2.2661 0.0 0
M  V30 8 C 3.8949 -2.2661 0.0 0
M  V30 9 C 3.8949 -3.7651 0.0 0
M  V30 10 C 5.1932 -1.5225 0.0 0
M  V30 11 C 5.1932 -4.5205 0.0 0
M  V30 12 C 6.4915 -2.2661 0.0 0
M  V30 13 C 6.4915 -3.7769 0.0 0
M  V30 END ATOM
M  V30 BEGIN BOND
M  V30 1 2 1 2
M  V30 2 1 2 3
M  V30 3 1 2 4
M  V30 4 1 3 5
M  V30 5 1 4 6
M  V30 6 1 5 7
M  V30 7 1 6 8
M  V30 8 2 8 9
M  V30 9 1 8 10
M  V30 10 1 9 11
M  V30 11 2 10 12
M  V30 12 2 11 13
M  V30 13 1 12 13
M  V30 END BOND
M  V30 END CTAB
M  END
>  <Molecule Name>
Phenoxyacetic acid, ethyl ester

>  <Activity Label>
0

>  <SMILES>
CCOC(COc1ccccc1)=O

>  <Molecular Formula>
C10H12O3

>  <InChIKey>
MGZFVSUXQXCEHM-UHFFFAOYSA-N

>  <Repellency>
Inactive

>  <Reference DOI>
10.3390/toxics11100837

>  <Target Organism>
Not applied

$$$$
Compound 467
Actelion Java MolfileCreator 2.0

  0  0  0  0  0  0              0 V3000
M  V30 BEGIN CTAB
M  V30 COUNTS 13 13 0 0 0
M  V30 BEGIN ATOM
M  V30 1 O 0.0 0.0 0.0 0
M  V30 2 C 0.0 -1.5021 0.0 0
M  V30 3 O 1.301 -2.2473 0.0 0
M  V30 4 O -1.301 -2.2473 0.0 0
M  V30 5 C 2.6021 -1.5021 0.0 0
M  V30 6 C -2.6021 -1.5021 0.0 0
M  V30 7 C 3.9032 -2.2473 0.0 0
M  V30 8 C 2.6021 0.0 0.0 0
M  V30 9 C -3.9032 -2.2473 0.0 0
M  V30 10 C 5.2043 -1.5021 0.0 0
M  V30 11 C 3.9032 0.7451 0.0 0
M  V30 12 C 5.2043 0.0 0.0 0
M  V30 13 C 6.5053 0.7451 0.0 0
M  V30 END ATOM
M  V30 BEGIN BOND
M  V30 1 2 1 2
M  V30 2 1 2 3
M  V30 3 1 2 4
M  V30 4 1 3 5
M  V30 5 1 4 6
M  V30 6 2 5 7
M  V30 7 1 5 8
M  V30 8 1 6 9
M  V30 9 1 7 10
M  V30 10 2 8 11
M  V30 11 2 10 12
M  V30 12 1 12 13
M  V30 13 1 11 12
M  V30 END BOND
M  V30 END CTAB
M  END
>  <Molecule Name>
Carbonic acid, p-tolyl ethyl ester

>  <Activity Label>
0

>  <SMILES>
CCOC(Oc1ccc(C)cc1)=O

>  <Molecular Formula>
C10H12O3

>  <InChIKey>
SMZZUTOGLVAUKB-UHFFFAOYSA-N

>  <Repellency>
Inactive

>  <Reference DOI>
10.3390/toxics11100837

>  <Target Organism>
Not applied

$$$$
Compound 468
Actelion Java MolfileCreator 2.0

  0  0  0  0  0  0              0 V3000
M  V30 BEGIN CTAB
M  V30 COUNTS 13 13 0 0 0
M  V30 BEGIN ATOM
M  V30 1 O 0.0 0.0 0.0 0
M  V30 2 C 0.0 -1.4994 0.0 0
M  V30 3 O -1.2987 -2.255 0.0 0
M  V30 4 C 1.2987 -2.255 0.0 0
M  V30 5 C -2.5974 -1.5112 0.0 0
M  V30 6 C 1.2987 -3.7544 0.0 0
M  V30 7 C 2.5974 -1.5112 0.0 0
M  V30 8 C -3.8961 -2.2668 0.0 0
M  V30 9 C 2.5974 -4.51 0.0 0
M  V30 10 C 3.8961 -2.2668 0.0 0
M  V30 11 C 3.8961 -3.7662 0.0 0
M  V30 12 O 5.1948 -4.5218 0.0 0
M  V30 13 C 6.4935 -3.778 0.0 0
M  V30 END ATOM
M  V30 BEGIN BOND
M  V30 1 2 1 2
M  V30 2 1 2 3
M  V30 3 1 2 4
M  V30 4 1 3 5
M  V30 5 2 4 6
M  V30 6 1 4 7
M  V30 7 1 5 8
M  V30 8 1 6 9
M  V30 9 2 7 10
M  V30 10 2 9 11
M  V30 11 1 11 12
M  V30 12 1 12 13
M  V30 13 1 10 11
M  V30 END BOND
M  V30 END CTAB
M  END
>  <Molecule Name>
Anisic acid, ethyl ester

>  <Activity Label>
0

>  <SMILES>
CCOC(c(cc1)ccc1OC)=O

>  <Molecular Formula>
C10H12O3

>  <InChIKey>
FHUODBDRWMIBQP-UHFFFAOYSA-N

>  <Repellency>
Inactive

>  <Reference DOI>
10.3390/toxics11100837

>  <Target Organism>
Not applied

$$$$
Compound 469
Actelion Java MolfileCreator 2.0

  0  0  0  0  0  0              0 V3000
M  V30 BEGIN CTAB
M  V30 COUNTS 13 13 0 0 0
M  V30 BEGIN ATOM
M  V30 1 O 0.0 0.0 0.0 0
M  V30 2 C 0.0 -1.501 0.0 0
M  V30 3 O -1.3001 -2.2456 0.0 0
M  V30 4 C 1.3001 -2.2456 0.0 0
M  V30 5 C -2.6002 -1.501 0.0 0
M  V30 6 C -3.9003 -2.2456 0.0 0
M  V30 7 C -5.2004 -1.4892 0.0 0
M  V30 8 C -3.9003 -3.7466 0.0 0
M  V30 9 C -6.5005 -2.2338 0.0 0
M  V30 10 C -5.2004 -4.4912 0.0 0
M  V30 11 C -6.5005 -3.7348 0.0 0
M  V30 12 O -7.8006 -4.4794 0.0 0
M  V30 13 C -7.8006 -5.9804 0.0 0
M  V30 END ATOM
M  V30 BEGIN BOND
M  V30 1 2 1 2
M  V30 2 1 2 3
M  V30 3 1 2 4
M  V30 4 1 3 5
M  V30 5 1 5 6
M  V30 6 2 6 7
M  V30 7 1 6 8
M  V30 8 1 7 9
M  V30 9 2 8 10
M  V30 10 2 9 11
M  V30 11 1 11 12
M  V30 12 1 12 13
M  V30 13 1 10 11
M  V30 END BOND
M  V30 END CTAB
M  END
>  <Molecule Name>
Acetic acid, 4-methoxybenzyl ester

>  <Activity Label>
0

>  <SMILES>
CC(OCc(cc1)ccc1OC)=O

>  <Molecular Formula>
C10H12O3

>  <InChIKey>
HFNGYHHRRMSKEU-UHFFFAOYSA-N

>  <Repellency>
Inactive

>  <Reference DOI>
10.3390/toxics11100837

>  <Target Organism>
Not applied

$$$$
Compound 470
Actelion Java MolfileCreator 2.0

  0  0  0  0  0  0              0 V3000
M  V30 BEGIN CTAB
M  V30 COUNTS 13 13 0 0 0
M  V30 BEGIN ATOM
M  V30 1 O 0.0 0.0 0.0 0
M  V30 2 C -1.3008 -0.745 0.0 0
M  V30 3 C 0.0 1.5019 0.0 0
M  V30 4 O -1.3008 -2.2469 0.0 0
M  V30 5 O -2.6017 0.0 0.0 0
M  V30 6 C 0.0 -1.4901 0.0 0
M  V30 7 C -2.6017 -2.992 0.0 0
M  V30 8 C -3.9026 -0.745 0.0 0
M  V30 9 C 0.0 -2.992 0.0 0
M  V30 10 C 1.3008 -0.745 0.0 0
M  V30 11 C 1.3008 -3.7371 0.0 0
M  V30 12 C 2.6017 -1.4901 0.0 0
M  V30 13 C 2.6017 -2.992 0.0 0
M  V30 END ATOM
M  V30 BEGIN BOND
M  V30 1 1 1 2
M  V30 2 1 1 3
M  V30 3 1 2 4
M  V30 4 1 2 5
M  V30 5 1 2 6
M  V30 6 1 4 7
M  V30 7 1 5 8
M  V30 8 2 6 9
M  V30 9 1 6 10
M  V30 10 1 9 11
M  V30 11 2 10 12
M  V30 12 2 11 13
M  V30 13 1 12 13
M  V30 END BOND
M  V30 END CTAB
M  END
>  <Molecule Name>
Orthobenzoic acid, trimethyl ester

>  <Activity Label>
0

>  <SMILES>
COC(c1ccccc1)(OC)OC

>  <Molecular Formula>
C10H14O3

>  <InChIKey>
IECKAVQTURBPON-UHFFFAOYSA-N

>  <Repellency>
Inactive

>  <Reference DOI>
10.3390/toxics11100837

>  <Target Organism>
Not applied

$$$$
Compound 471
Actelion Java MolfileCreator 2.0

  0  0  0  0  0  0              0 V3000
M  V30 BEGIN CTAB
M  V30 COUNTS 13 13 0 0 0
M  V30 BEGIN ATOM
M  V30 1 O 0.0 0.0 0.0 0
M  V30 2 C -1.3002 0.7447 0.0 0
M  V30 3 C 1.3002 0.7447 0.0 0
M  V30 4 C -2.6005 0.0 0.0 0
M  V30 5 C 2.6005 0.0 0.0 0 CFG=1
M  V30 6 C -3.9008 0.7565 0.0 0
M  V30 7 C -2.6005 -1.5012 0.0 0
M  V30 8 O 2.6005 -1.5012 0.0 0
M  V30 9 C 3.9008 0.7447 0.0 0
M  V30 10 C -5.2011 0.0118 0.0 0
M  V30 11 C -3.9008 -2.2459 0.0 0
M  V30 12 O 5.2011 0.0 0.0 0
M  V30 13 C -5.2011 -1.4894 0.0 0
M  V30 END ATOM
M  V30 BEGIN BOND
M  V30 1 1 1 2
M  V30 2 1 1 3
M  V30 3 1 2 4
M  V30 4 1 3 5
M  V30 5 2 4 6
M  V30 6 1 4 7
M  V30 7 1 5 8 CFG=3
M  V30 8 1 5 9
M  V30 9 1 6 10
M  V30 10 2 7 11
M  V30 11 1 9 12
M  V30 12 2 10 13
M  V30 13 1 11 13
M  V30 END BOND
M  V30 BEGIN COLLECTION
M  V30 MDLV30/STERAC1 ATOMS=(1 5)
M  V30 END COLLECTION
M  V30 END CTAB
M  END
>  <Molecule Name>
Benzyl glyceryl ether

>  <Activity Label>
0

>  <SMILES>
OCC(COCc1ccccc1)O

>  <Molecular Formula>
C10H14O3

>  <InChIKey>
LWCIBYRXSHRIAP-UHFFFAOYSA-N

>  <Repellency>
Inactive

>  <Reference DOI>
10.3390/toxics11100837

>  <Target Organism>
Not applied

$$$$
Compound 472
Actelion Java MolfileCreator 2.0

  0  0  0  0  0  0              0 V3000
M  V30 BEGIN CTAB
M  V30 COUNTS 13 13 0 0 0
M  V30 BEGIN ATOM
M  V30 1 S 0.0 0.0 0.0 0
M  V30 2 O 0.7554 1.2985 0.0 0
M  V30 3 O -0.7436 1.2985 0.0 0
M  V30 4 O -1.2985 -0.7554 0.0 0
M  V30 5 C 1.2985 -0.7554 0.0 0
M  V30 6 C -2.597 -0.0118 0.0 0
M  V30 7 C 2.597 0.0 0.0 0
M  V30 8 C 1.2985 -2.2546 0.0 0
M  V30 9 C -3.8955 -0.7672 0.0 0
M  V30 10 C 3.8955 -0.7554 0.0 0
M  V30 11 C 2.597 -2.9983 0.0 0
M  V30 12 C 3.8955 -2.2546 0.0 0
M  V30 13 C 5.194 -3.0101 0.0 0
M  V30 END ATOM
M  V30 BEGIN BOND
M  V30 1 2 1 2
M  V30 2 2 1 3
M  V30 3 1 1 4
M  V30 4 1 1 5
M  V30 5 1 4 6
M  V30 6 2 5 7
M  V30 7 1 5 8
M  V30 8 1 6 9
M  V30 9 1 7 10
M  V30 10 2 8 11
M  V30 11 2 10 12
M  V30 12 1 12 13
M  V30 13 1 11 12
M  V30 END BOND
M  V30 END CTAB
M  END
>  <Molecule Name>
p-Toluenesulfonic acid, ethyl ester

>  <Activity Label>
0

>  <SMILES>
CCOS(c1ccc(C)cc1)(=O)=O

>  <Molecular Formula>
C9H12O3S

>  <InChIKey>
VRZVPALEJCLXPR-UHFFFAOYSA-N

>  <Repellency>
Inactive

>  <Reference DOI>
10.3390/toxics11100837

>  <Target Organism>
Not applied

$$$$
Compound 473
Actelion Java MolfileCreator 2.0

  0  0  0  0  0  0              0 V3000
M  V30 BEGIN CTAB
M  V30 COUNTS 13 13 0 0 0
M  V30 BEGIN ATOM
M  V30 1 O 0.0 0.0 0.0 0
M  V30 2 C -1.2991 -0.7558 0.0 0
M  V30 3 O -2.5982 -0.0118 0.0 0
M  V30 4 C -1.2991 -2.2557 0.0 0 CFG=1
M  V30 5 C -3.8973 -0.7676 0.0 0
M  V30 6 C -2.5982 -2.9997 0.0 0
M  V30 7 C 0.0 -3.0115 0.0 0
M  V30 8 N -3.8973 -3.7437 0.0 0
M  V30 9 C 0.0 -4.5114 0.0 0
M  V30 10 C 1.2991 -2.2675 0.0 0
M  V30 11 C 1.2991 -5.2672 0.0 0
M  V30 12 C 2.5982 -3.0233 0.0 0
M  V30 13 C 2.5982 -4.5232 0.0 0
M  V30 END ATOM
M  V30 BEGIN BOND
M  V30 1 2 1 2
M  V30 2 1 2 3
M  V30 3 1 2 4
M  V30 4 1 3 5
M  V30 5 1 4 6 CFG=3
M  V30 6 1 4 7
M  V30 7 3 6 8
M  V30 8 1 7 9
M  V30 9 1 7 10
M  V30 10 1 9 11
M  V30 11 1 10 12
M  V30 12 1 11 13
M  V30 13 1 12 13
M  V30 END BOND
M  V30 BEGIN COLLECTION
M  V30 MDLV30/STERAC1 ATOMS=(1 4)
M  V30 END COLLECTION
M  V30 END CTAB
M  END
>  <Molecule Name>
alpha-Cyclohexyl-alpha-cyano-acetic acid, methyl ester

>  <Activity Label>
0

>  <SMILES>
COC(C(C1CCCCC1)C#N)=O

>  <Molecular Formula>
C10H15NO2

>  <InChIKey>
FJEDWMVYUGKGLT-UHFFFAOYSA-N

>  <Repellency>
Inactive

>  <Reference DOI>
10.3390/toxics11100837

>  <Target Organism>
Not applied

$$$$
Compound 474
Actelion Java MolfileCreator 2.0

  0  0  0  0  0  0              0 V3000
M  V30 BEGIN CTAB
M  V30 COUNTS 13 13 0 0 0
M  V30 BEGIN ATOM
M  V30 1 S 0.0 0.0 0.0 0
M  V30 2 O 0.7556 1.2987 0.0 0
M  V30 3 O -0.7438 1.2987 0.0 0
M  V30 4 N -1.2987 -0.7556 0.0 0
M  V30 5 C 1.2987 -0.7556 0.0 0
M  V30 6 C -2.5974 -0.0118 0.0 0
M  V30 7 C 1.2987 -2.255 0.0 0
M  V30 8 C 2.5974 -0.0118 0.0 0
M  V30 9 C -2.5974 1.4876 0.0 0
M  V30 10 C -3.8961 -0.7674 0.0 0
M  V30 11 C 2.5974 -3.0106 0.0 0
M  V30 12 C 3.8961 -0.7674 0.0 0
M  V30 13 C 3.8961 -2.2668 0.0 0
M  V30 END ATOM
M  V30 BEGIN BOND
M  V30 1 2 1 2
M  V30 2 2 1 3
M  V30 3 1 1 4
M  V30 4 1 1 5
M  V30 5 1 4 6
M  V30 6 2 5 7
M  V30 7 1 5 8
M  V30 8 1 6 9
M  V30 9 1 6 10
M  V30 10 1 7 11
M  V30 11 2 8 12
M  V30 12 2 11 13
M  V30 13 1 12 13
M  V30 END BOND
M  V30 END CTAB
M  END
>  <Molecule Name>
N-iso-Propyl benzenesulfonamide

>  <Activity Label>
0

>  <SMILES>
CC(C)NS(c1ccccc1)(=O)=O

>  <Molecular Formula>
C9H13NO2S

>  <InChIKey>
QKIWHADSHFVRFN-UHFFFAOYSA-N

>  <Repellency>
Inactive

>  <Reference DOI>
10.3390/toxics11100837

>  <Target Organism>
Not applied

$$$$
Compound 475
Actelion Java MolfileCreator 2.0

  0  0  0  0  0  0              0 V3000
M  V30 BEGIN CTAB
M  V30 COUNTS 13 13 0 0 0
M  V30 BEGIN ATOM
M  V30 1 F 0.0 0.0 0.0 0
M  V30 2 C 0.756 1.2994 0.0 0
M  V30 3 F -0.5434 2.0555 0.0 0
M  V30 4 F 1.5121 2.5989 0.0 0
M  V30 5 C 2.0555 0.5434 0.0 0
M  V30 6 C 3.355 1.2876 0.0 0
M  V30 7 C 2.0555 -0.9569 0.0 0
M  V30 8 C 4.6545 0.5316 0.0 0
M  V30 9 C 3.355 -1.7011 0.0 0
M  V30 10 N 5.954 1.2758 0.0 0 CHG=1
M  V30 11 C 4.6545 -0.9687 0.0 0
M  V30 12 O 7.2535 0.5316 0.0 0
M  V30 13 O 5.954 2.7761 0.0 0 CHG=-1
M  V30 END ATOM
M  V30 BEGIN BOND
M  V30 1 1 1 2
M  V30 2 1 2 3
M  V30 3 1 2 4
M  V30 4 1 2 5
M  V30 5 2 5 6
M  V30 6 1 5 7
M  V30 7 1 6 8
M  V30 8 2 7 9
M  V30 9 1 8 10
M  V30 10 2 8 11
M  V30 11 2 10 12
M  V30 12 1 10 13
M  V30 13 1 9 11
M  V30 END BOND
M  V30 END CTAB
M  END
>  <Molecule Name>
m-Nitrotrifluorotoluene

>  <Activity Label>
0

>  <SMILES>
[O-][N+](c1cccc(C(F)(F)F)c1)=O

>  <Molecular Formula>
C7H4NO2F3

>  <InChIKey>
WHNAMGUAXHGCHH-UHFFFAOYSA-N

>  <Repellency>
Inactive

>  <Reference DOI>
10.3390/toxics11100837

>  <Target Organism>
Not applied

$$$$
Compound 476
Actelion Java MolfileCreator 2.0

  0  0  0  0  0  0              0 V3000
M  V30 BEGIN CTAB
M  V30 COUNTS 13 13 0 0 0
M  V30 BEGIN ATOM
M  V30 1 O 0.0 0.0 0.0 0
M  V30 2 C -1.3008 0.745 0.0 0
M  V30 3 C -1.3008 2.2469 0.0 0
M  V30 4 C -2.6017 2.992 0.0 0
M  V30 5 C 0.0 2.992 0.0 0
M  V30 6 C -2.6017 4.4939 0.0 0
M  V30 7 C 0.0 4.4939 0.0 0
M  V30 8 C -1.3008 5.239 0.0 0
M  V30 9 N -1.3008 6.7409 0.0 0
M  V30 10 C 0.0 7.486 0.0 0
M  V30 11 C -2.6017 7.486 0.0 0
M  V30 12 C 1.3008 6.7409 0.0 0
M  V30 13 C -3.9026 6.7409 0.0 0
M  V30 END ATOM
M  V30 BEGIN BOND
M  V30 1 1 1 2
M  V30 2 1 2 3
M  V30 3 2 3 4
M  V30 4 1 3 5
M  V30 5 1 4 6
M  V30 6 2 5 7
M  V30 7 2 6 8
M  V30 8 1 8 9
M  V30 9 1 9 10
M  V30 10 1 9 11
M  V30 11 1 10 12
M  V30 12 1 11 13
M  V30 13 1 7 8
M  V30 END BOND
M  V30 END CTAB
M  END
>  <Molecule Name>
p-Di ethylaminobenzyl alcohol

>  <Activity Label>
0

>  <SMILES>
CCN(CC)c1ccc(CO)cc1

>  <Molecular Formula>
C11H17NO

>  <InChIKey>
XBWPETQKXGERGU-UHFFFAOYSA-N

>  <Repellency>
Inactive

>  <Reference DOI>
10.3390/toxics11100837

>  <Target Organism>
Not applied

$$$$
Compound 477
Actelion Java MolfileCreator 2.0

  0  0  0  0  0  0              0 V3000
M  V30 BEGIN CTAB
M  V30 COUNTS 14 14 0 0 0
M  V30 BEGIN ATOM
M  V30 1 C 0.0 0.0 0.0 0
M  V30 2 C -1.3 -0.7445 0.0 0
M  V30 3 C 1.3 -0.7563 0.0 0
M  V30 4 C 0.0 1.5009 0.0 0
M  V30 5 C -1.3 -2.2455 0.0 0
M  V30 6 C -2.6001 0.0 0.0 0
M  V30 7 C 1.3 -2.2573 0.0 0
M  V30 8 C -1.5009 1.5009 0.0 0
M  V30 9 C 0.0 3.0019 0.0 0
M  V30 10 C 1.5009 1.5009 0.0 0
M  V30 11 C 0.0 -2.9901 0.0 0
M  V30 12 C -2.6001 1.5009 0.0 0
M  V30 13 C -3.9001 -0.7445 0.0 0
M  V30 14 C 2.6001 -3.0137 0.0 0
M  V30 END ATOM
M  V30 BEGIN BOND
M  V30 1 2 1 2
M  V30 2 1 1 3
M  V30 3 1 1 4
M  V30 4 1 2 5
M  V30 5 1 2 6
M  V30 6 2 3 7
M  V30 7 1 4 8
M  V30 8 1 4 9
M  V30 9 1 4 10
M  V30 10 2 5 11
M  V30 11 1 6 12
M  V30 12 1 6 13
M  V30 13 1 7 14
M  V30 14 1 7 11
M  V30 END BOND
M  V30 END CTAB
M  END
>  <Molecule Name>
1-Methyl-3-tert-butyl-4-isopropylbenzene

>  <Activity Label>
0

>  <SMILES>
CC(C)c1c(C(C)(C)C)cc(C)cc1

>  <Molecular Formula>
C14H22

>  <InChIKey>
SMCPNHZXBWUSAC-UHFFFAOYSA-N

>  <Repellency>
Inactive

>  <Reference DOI>
10.3390/toxics11100837

>  <Target Organism>
Not applied

$$$$
Compound 478
Actelion Java MolfileCreator 2.0

  0  0  0  0  0  0              0 V3000
M  V30 BEGIN CTAB
M  V30 COUNTS 14 14 0 0 0
M  V30 BEGIN ATOM
M  V30 1 O 0.0 0.0 0.0 0
M  V30 2 C 0.0 -1.4992 0.0 0
M  V30 3 O -1.2985 -2.2547 0.0 0
M  V30 4 C 1.2985 -2.2547 0.0 0
M  V30 5 C -2.5971 -1.511 0.0 0
M  V30 6 C 1.2985 -3.754 0.0 0
M  V30 7 C 2.5971 -1.511 0.0 0
M  V30 8 C -3.8956 -2.2665 0.0 0
M  V30 9 O 0.0 -4.4977 0.0 0
M  V30 10 C 2.5971 -4.5095 0.0 0
M  V30 11 C 3.8956 -2.2547 0.0 0
M  V30 12 O -5.1942 -1.5228 0.0 0
M  V30 13 C 3.8956 -3.7658 0.0 0
M  V30 14 C -6.4927 -2.2783 0.0 0
M  V30 END ATOM
M  V30 BEGIN BOND
M  V30 1 2 1 2
M  V30 2 1 2 3
M  V30 3 1 2 4
M  V30 4 1 3 5
M  V30 5 2 4 6
M  V30 6 1 4 7
M  V30 7 1 5 8
M  V30 8 1 6 9
M  V30 9 1 6 10
M  V30 10 2 7 11
M  V30 11 1 8 12
M  V30 12 2 10 13
M  V30 13 1 12 14
M  V30 14 1 11 13
M  V30 END BOND
M  V30 END CTAB
M  END
>  <Molecule Name>
Salicylic acid, 2-methoxyethyl ester

>  <Activity Label>
0

>  <SMILES>
COCCOC(c(cccc1)c1O)=O

>  <Molecular Formula>
C10H12O4

>  <InChIKey>
DGLACCYWYOEWBS-UHFFFAOYSA-N

>  <Repellency>
Inactive

>  <Reference DOI>
10.3390/toxics11100837

>  <Target Organism>
Not applied

$$$$
Compound 479
Actelion Java MolfileCreator 2.0

  0  0  0  0  0  0              0 V3000
M  V30 BEGIN CTAB
M  V30 COUNTS 14 14 0 0 0
M  V30 BEGIN ATOM
M  V30 1 O 0.0 0.0 0.0 0
M  V30 2 C 0.0 1.5026 0.0 0
M  V30 3 C 1.3014 2.248 0.0 0
M  V30 4 C 1.3014 3.7506 0.0 0
M  V30 5 C 2.6029 1.5026 0.0 0
M  V30 6 C 2.6029 4.496 0.0 0
M  V30 7 C 3.9044 2.248 0.0 0
M  V30 8 C 3.9044 3.7388 0.0 0
M  V30 9 O 5.2059 4.4841 0.0 0
M  V30 10 C 6.5074 3.7388 0.0 0
M  V30 11 C 7.8088 4.4841 0.0 0
M  V30 12 C 9.1103 3.7388 0.0 0
M  V30 13 C 10.4118 4.4841 0.0 0
M  V30 14 C 11.7133 3.7388 0.0 0
M  V30 END ATOM
M  V30 BEGIN BOND
M  V30 1 2 1 2
M  V30 2 1 2 3
M  V30 3 2 3 4
M  V30 4 1 3 5
M  V30 5 1 4 6
M  V30 6 2 5 7
M  V30 7 2 6 8
M  V30 8 1 8 9
M  V30 9 1 9 10
M  V30 10 1 10 11
M  V30 11 1 11 12
M  V30 12 1 12 13
M  V30 13 1 13 14
M  V30 14 1 7 8
M  V30 END BOND
M  V30 END CTAB
M  END
>  <Molecule Name>
p-n-Pentoxybenzaldehyde

>  <Activity Label>
0

>  <SMILES>
CCCCCOc1ccc(C=O)cc1

>  <Molecular Formula>
C12H16O2

>  <InChIKey>
YAPVGSXODFOBBR-UHFFFAOYSA-N

>  <Repellency>
Inactive

>  <Reference DOI>
10.3390/toxics11100837

>  <Target Organism>
Not applied

$$$$
Compound 480
Actelion Java MolfileCreator 2.0

  0  0  0  0  0  0              0 V3000
M  V30 BEGIN CTAB
M  V30 COUNTS 14 14 0 0 0
M  V30 BEGIN ATOM
M  V30 1 O 0.0 0.0 0.0 0
M  V30 2 C 0.0 1.5024 0.0 0
M  V30 3 C 1.3013 2.2477 0.0 0
M  V30 4 C 1.3013 3.7501 0.0 0
M  V30 5 C 2.6026 1.5024 0.0 0
M  V30 6 C 2.6026 4.4954 0.0 0
M  V30 7 C 3.9039 2.2477 0.0 0
M  V30 8 C 3.9039 3.7383 0.0 0
M  V30 9 O 5.2052 4.4836 0.0 0
M  V30 10 C 6.5065 3.7383 0.0 0
M  V30 11 C 7.8078 4.4836 0.0 0
M  V30 12 C 9.1091 3.7383 0.0 0
M  V30 13 C 10.4104 4.4836 0.0 0
M  V30 14 C 9.1091 2.2358 0.0 0
M  V30 END ATOM
M  V30 BEGIN BOND
M  V30 1 2 1 2
M  V30 2 1 2 3
M  V30 3 2 3 4
M  V30 4 1 3 5
M  V30 5 1 4 6
M  V30 6 2 5 7
M  V30 7 2 6 8
M  V30 8 1 8 9
M  V30 9 1 9 10
M  V30 10 1 10 11
M  V30 11 1 11 12
M  V30 12 1 12 13
M  V30 13 1 12 14
M  V30 14 1 7 8
M  V30 END BOND
M  V30 END CTAB
M  END
>  <Molecule Name>
p-iso-Pentoxybenzaldehyde

>  <Activity Label>
0

>  <SMILES>
CC(C)CCOc1ccc(C=O)cc1

>  <Molecular Formula>
C12H16O2

>  <InChIKey>
WWBHAIFPHGGVCW-UHFFFAOYSA-N

>  <Repellency>
Inactive

>  <Reference DOI>
10.3390/toxics11100837

>  <Target Organism>
Not applied

$$$$
Compound 481
Actelion Java MolfileCreator 2.0

  0  0  0  0  0  0              0 V3000
M  V30 BEGIN CTAB
M  V30 COUNTS 14 14 0 0 0
M  V30 BEGIN ATOM
M  V30 1 O 0.0 0.0 0.0 0
M  V30 2 C -1.2998 0.7444 0.0 0
M  V30 3 C -1.2998 2.2451 0.0 0
M  V30 4 C -2.5996 -0.0118 0.0 0
M  V30 5 C 0.0 2.9896 0.0 0
M  V30 6 C -2.5996 3.0014 0.0 0
M  V30 7 C -3.8995 0.7326 0.0 0 CFG=1
M  V30 8 C 0.0 4.4903 0.0 0
M  V30 9 C -2.5996 4.5021 0.0 0
M  V30 10 C -5.1993 -0.0236 0.0 0
M  V30 11 C -3.8995 2.2333 0.0 0
M  V30 12 C -1.2998 5.2348 0.0 0
M  V30 13 O -6.4992 0.7208 0.0 0
M  V30 14 C -7.799 -0.0354 0.0 0
M  V30 END ATOM
M  V30 BEGIN BOND
M  V30 1 2 1 2
M  V30 2 1 2 3
M  V30 3 1 2 4
M  V30 4 2 3 5
M  V30 5 1 3 6
M  V30 6 1 4 7
M  V30 7 1 5 8
M  V30 8 2 6 9
M  V30 9 1 7 10
M  V30 10 1 7 11 CFG=1
M  V30 11 2 8 12
M  V30 12 1 10 13
M  V30 13 1 13 14
M  V30 14 1 9 12
M  V30 END BOND
M  V30 BEGIN COLLECTION
M  V30 MDLV30/STERAC1 ATOMS=(1 7)
M  V30 END COLLECTION
M  V30 END CTAB
M  END
>  <Molecule Name>
3-Methyl-4-methoxybutyrophenone

>  <Activity Label>
0

>  <SMILES>
CC(CC(c1ccccc1)=O)COC

>  <Molecular Formula>
C12H16O2

>  <InChIKey>
PLENJYMJMFDBMH-UHFFFAOYSA-N

>  <Repellency>
Inactive

>  <Reference DOI>
10.3390/toxics11100837

>  <Target Organism>
Not applied

$$$$
Compound 482
Actelion Java MolfileCreator 2.0

  0  0  0  0  0  0              0 V3000
M  V30 BEGIN CTAB
M  V30 COUNTS 14 14 0 0 0
M  V30 BEGIN ATOM
M  V30 1 O 0.0 0.0 0.0 0
M  V30 2 C 0.0 -1.5013 0.0 0
M  V30 3 O -1.3003 -2.2461 0.0 0
M  V30 4 C 1.3003 -2.2461 0.0 0
M  V30 5 C -2.6007 -1.5013 0.0 0
M  V30 6 C 2.6007 -1.5013 0.0 0
M  V30 7 C -3.9011 -2.2461 0.0 0
M  V30 8 C 3.9011 -2.2461 0.0 0
M  V30 9 C -5.2015 -1.4895 0.0 0
M  V30 10 C -3.9011 -3.7474 0.0 0
M  V30 11 C 5.2015 -1.5013 0.0 0
M  V30 12 C -6.5019 -2.2342 0.0 0
M  V30 13 C -5.2015 -4.4922 0.0 0
M  V30 14 C -6.5019 -3.7356 0.0 0
M  V30 END ATOM
M  V30 BEGIN BOND
M  V30 1 2 1 2
M  V30 2 1 2 3
M  V30 3 1 2 4
M  V30 4 1 3 5
M  V30 5 1 4 6
M  V30 6 1 5 7
M  V30 7 1 6 8
M  V30 8 2 7 9
M  V30 9 1 7 10
M  V30 10 1 8 11
M  V30 11 1 9 12
M  V30 12 2 10 13
M  V30 13 2 12 14
M  V30 14 1 13 14
M  V30 END BOND
M  V30 END CTAB
M  END
>  <Molecule Name>
Valeric acid, benzyl ester

>  <Activity Label>
0

>  <SMILES>
CCCCC(OCc1ccccc1)=O

>  <Molecular Formula>
C12H16O2

>  <InChIKey>
YZJCDVRXBOPXSQ-UHFFFAOYSA-N

>  <Repellency>
Inactive

>  <Reference DOI>
10.3390/toxics11100837

>  <Target Organism>
Not applied

$$$$
Compound 483
Actelion Java MolfileCreator 2.0

  0  0  0  0  0  0              0 V3000
M  V30 BEGIN CTAB
M  V30 COUNTS 14 14 0 0 0
M  V30 BEGIN ATOM
M  V30 1 O 0.0 0.0 0.0 0
M  V30 2 C 0.0 -1.4996 0.0 0
M  V30 3 O -1.2989 -2.2553 0.0 0
M  V30 4 C 1.2989 -2.2553 0.0 0
M  V30 5 C -2.5978 -1.5114 0.0 0
M  V30 6 C 2.5978 -1.5114 0.0 0
M  V30 7 C -3.8967 -2.2672 0.0 0
M  V30 8 C 3.8967 -2.2672 0.0 0
M  V30 9 C 5.1956 -1.5232 0.0 0
M  V30 10 C 6.4946 -2.279 0.0 0
M  V30 11 C 5.1956 -0.0236 0.0 0
M  V30 12 C 7.7935 -1.535 0.0 0
M  V30 13 C 6.4946 0.7203 0.0 0
M  V30 14 C 7.7935 -0.0354 0.0 0
M  V30 END ATOM
M  V30 BEGIN BOND
M  V30 1 2 1 2
M  V30 2 1 2 3
M  V30 3 1 2 4
M  V30 4 1 3 5
M  V30 5 1 4 6
M  V30 6 1 5 7
M  V30 7 1 6 8
M  V30 8 1 8 9
M  V30 9 1 9 10
M  V30 10 1 9 11
M  V30 11 1 10 12
M  V30 12 1 11 13
M  V30 13 1 12 14
M  V30 14 1 13 14
M  V30 END BOND
M  V30 END CTAB
M  END
>  <Molecule Name>
gamma-Cyclohexylbutyric acid, ethyl ester

>  <Activity Label>
0

>  <SMILES>
CCOC(CCCC1CCCCC1)=O

>  <Molecular Formula>
C12H22O2

>  <InChIKey>
WPXJWOPKMCYCRW-UHFFFAOYSA-N

>  <Repellency>
Inactive

>  <Reference DOI>
10.3390/toxics11100837

>  <Target Organism>
Not applied

$$$$
Compound 484
Actelion Java MolfileCreator 2.0

  0  0  0  0  0  0              0 V3000
M  V30 BEGIN CTAB
M  V30 COUNTS 14 14 0 0 0
M  V30 BEGIN ATOM
M  V30 1 O 0.0 0.0 0.0 0
M  V30 2 C 0.0 -1.499 0.0 0
M  V30 3 O -1.2983 -2.2544 0.0 0
M  V30 4 C 1.2983 -2.2544 0.0 0
M  V30 5 C -2.5967 -1.5108 0.0 0
M  V30 6 C 1.2983 -3.7535 0.0 0
M  V30 7 C 2.5967 -1.5108 0.0 0
M  V30 8 C -3.8951 -2.2662 0.0 0
M  V30 9 C 2.5967 -4.5089 0.0 0
M  V30 10 C 3.8951 -2.2544 0.0 0
M  V30 11 C -5.1935 -1.5226 0.0 0
M  V30 12 C 3.8951 -3.7653 0.0 0
M  V30 13 C -5.1935 -0.0236 0.0 0
M  V30 14 C -6.4919 -2.278 0.0 0
M  V30 END ATOM
M  V30 BEGIN BOND
M  V30 1 2 1 2
M  V30 2 1 2 3
M  V30 3 1 2 4
M  V30 4 1 3 5
M  V30 5 2 4 6
M  V30 6 1 4 7
M  V30 7 1 5 8
M  V30 8 1 6 9
M  V30 9 2 7 10
M  V30 10 1 8 11
M  V30 11 2 9 12
M  V30 12 1 11 13
M  V30 13 1 11 14
M  V30 14 1 10 12
M  V30 END BOND
M  V30 END CTAB
M  END
>  <Molecule Name>
Benzoic acid, iso-amyl ester

>  <Activity Label>
0

>  <SMILES>
CC(C)CCOC(c1ccccc1)=O

>  <Molecular Formula>
C12H16O2

>  <InChIKey>
MLLAPOCBLWUFAP-UHFFFAOYSA-N

>  <Repellency>
Inactive

>  <Reference DOI>
10.3390/toxics11100837

>  <Target Organism>
Not applied

$$$$
Compound 485
Actelion Java MolfileCreator 2.0

  0  0  0  0  0  0              0 V3000
M  V30 BEGIN CTAB
M  V30 COUNTS 14 14 0 0 0
M  V30 BEGIN ATOM
M  V30 1 O 0.0 0.0 0.0 0
M  V30 2 C 0.0 1.4983 0.0 0
M  V30 3 O -1.2978 2.2534 0.0 0
M  V30 4 C 1.2978 2.2534 0.0 0
M  V30 5 C -2.5956 1.4983 0.0 0
M  V30 6 C 2.5956 1.4983 0.0 0
M  V30 7 C 1.2978 3.7518 0.0 0
M  V30 8 C -3.8934 2.2534 0.0 0
M  V30 9 C 3.8934 2.2417 0.0 0
M  V30 10 C 2.5956 4.4951 0.0 0
M  V30 11 C -5.1913 1.4983 0.0 0
M  V30 12 C 3.8934 3.7401 0.0 0
M  V30 13 C -6.4891 2.2534 0.0 0
M  V30 14 C -7.7869 1.4983 0.0 0
M  V30 END ATOM
M  V30 BEGIN BOND
M  V30 1 2 1 2
M  V30 2 1 2 3
M  V30 3 1 2 4
M  V30 4 1 3 5
M  V30 5 2 4 6
M  V30 6 1 4 7
M  V30 7 1 5 8
M  V30 8 1 6 9
M  V30 9 2 7 10
M  V30 10 1 8 11
M  V30 11 2 9 12
M  V30 12 1 11 13
M  V30 13 1 13 14
M  V30 14 1 10 12
M  V30 END BOND
M  V30 END CTAB
M  END
>  <Molecule Name>
Benzoic acid, amyl ester

>  <Activity Label>
0

>  <SMILES>
CCCCCOC(c1ccccc1)=O

>  <Molecular Formula>
C12H16O2

>  <InChIKey>
QKNZNUNCDJZTCH-UHFFFAOYSA-N

>  <Repellency>
Inactive

>  <Reference DOI>
10.3390/toxics11100837

>  <Target Organism>
Not applied

$$$$
Compound 486
Actelion Java MolfileCreator 2.0

  0  0  0  0  0  0              0 V3000
M  V30 BEGIN CTAB
M  V30 COUNTS 14 14 0 0 0
M  V30 BEGIN ATOM
M  V30 1 O 0.0 0.0 0.0 0
M  V30 2 C 0.0 -1.5 0.0 0
M  V30 3 O -1.2992 -2.256 0.0 0
M  V30 4 C 1.2992 -2.256 0.0 0
M  V30 5 C -2.5985 -1.5118 0.0 0
M  V30 6 C 1.2992 -3.7561 0.0 0
M  V30 7 C 2.5985 -1.5118 0.0 0
M  V30 8 C -3.8978 -2.2678 0.0 0
M  V30 9 C 2.5985 -4.512 0.0 0
M  V30 10 C 3.8978 -2.2678 0.0 0
M  V30 11 C -3.1537 -3.5671 0.0 0
M  V30 12 C -5.1971 -3.0119 0.0 0
M  V30 13 C -4.6419 -0.9685 0.0 0
M  V30 14 C 3.8978 -3.7679 0.0 0
M  V30 END ATOM
M  V30 BEGIN BOND
M  V30 1 2 1 2
M  V30 2 1 2 3
M  V30 3 1 2 4
M  V30 4 1 3 5
M  V30 5 2 4 6
M  V30 6 1 4 7
M  V30 7 1 5 8
M  V30 8 1 6 9
M  V30 9 2 7 10
M  V30 10 1 8 11
M  V30 11 1 8 12
M  V30 12 1 8 13
M  V30 13 2 9 14
M  V30 14 1 10 14
M  V30 END BOND
M  V30 END CTAB
M  END
>  <Molecule Name>
Benzoic acid, neo-pentyl ester

>  <Activity Label>
0

>  <SMILES>
CC(C)(C)COC(c1ccccc1)=O

>  <Molecular Formula>
C12H16O2

>  <InChIKey>
ZBPDCWGVJKTGND-UHFFFAOYSA-N

>  <Repellency>
Inactive

>  <Reference DOI>
10.3390/toxics11100837

>  <Target Organism>
Not applied

$$$$
Compound 487
Actelion Java MolfileCreator 2.0

  0  0  0  0  0  0              0 V3000
M  V30 BEGIN CTAB
M  V30 COUNTS 14 14 0 0 0
M  V30 BEGIN ATOM
M  V30 1 O 0.0 0.0 0.0 0
M  V30 2 C 0.0 -1.5011 0.0 0
M  V30 3 O 1.3002 -2.2458 0.0 0
M  V30 4 C -1.3002 -2.2458 0.0 0 CFG=1
M  V30 5 C 2.6004 -1.5011 0.0 0
M  V30 6 C -1.3002 -3.7469 0.0 0
M  V30 7 C -2.6004 -1.5011 0.0 0
M  V30 8 C 3.9006 -2.2458 0.0 0
M  V30 9 C -2.6004 -4.4916 0.0 0
M  V30 10 C 0.0 -4.4916 0.0 0
M  V30 11 C -3.9006 -2.2458 0.0 0
M  V30 12 C -2.6004 -5.9927 0.0 0
M  V30 13 C 0.0 -5.9927 0.0 0
M  V30 14 C -1.3002 -6.7492 0.0 0
M  V30 END ATOM
M  V30 BEGIN BOND
M  V30 1 2 1 2
M  V30 2 1 2 3
M  V30 3 1 2 4
M  V30 4 1 3 5
M  V30 5 1 4 6
M  V30 6 1 4 7 CFG=1
M  V30 7 1 5 8
M  V30 8 2 6 9
M  V30 9 1 6 10
M  V30 10 1 7 11
M  V30 11 1 9 12
M  V30 12 2 10 13
M  V30 13 2 12 14
M  V30 14 1 13 14
M  V30 END BOND
M  V30 BEGIN COLLECTION
M  V30 MDLV30/STERAC1 ATOMS=(1 4)
M  V30 END COLLECTION
M  V30 END CTAB
M  END
>  <Molecule Name>
alpha-Phenylbutyric acid, ethyl ester

>  <Activity Label>
0

>  <SMILES>
CCC(C(OCC)=O)c1ccccc1

>  <Molecular Formula>
C12H16O2

>  <InChIKey>
CLLUFLLBRNCOLB-UHFFFAOYSA-N

>  <Repellency>
Inactive

>  <Reference DOI>
10.3390/toxics11100837

>  <Target Organism>
Not applied

$$$$
Compound 488
Actelion Java MolfileCreator 2.0

  0  0  0  0  0  0              0 V3000
M  V30 BEGIN CTAB
M  V30 COUNTS 14 14 0 0 0
M  V30 BEGIN ATOM
M  V30 1 O 0.0 0.0 0.0 0
M  V30 2 C 0.0 -1.5011 0.0 0
M  V30 3 O 1.3002 -2.2458 0.0 0
M  V30 4 C -1.3002 -2.2458 0.0 0 CFG=2
M  V30 5 C 2.6004 -1.5011 0.0 0
M  V30 6 C -1.3002 -3.7469 0.0 0
M  V30 7 C -2.6004 -1.5011 0.0 0
M  V30 8 C 3.9006 -2.2458 0.0 0
M  V30 9 C -2.6004 -4.4916 0.0 0
M  V30 10 C 0.0 -4.4916 0.0 0
M  V30 11 C -3.9006 -2.2458 0.0 0
M  V30 12 C -2.6004 -5.9927 0.0 0
M  V30 13 C 0.0 -5.9927 0.0 0
M  V30 14 C -1.3002 -6.7492 0.0 0
M  V30 END ATOM
M  V30 BEGIN BOND
M  V30 1 2 1 2
M  V30 2 1 2 3
M  V30 3 1 2 4
M  V30 4 1 3 5
M  V30 5 1 4 6
M  V30 6 1 4 7 CFG=3
M  V30 7 1 5 8
M  V30 8 1 6 9
M  V30 9 1 6 10
M  V30 10 1 7 11
M  V30 11 1 9 12
M  V30 12 1 10 13
M  V30 13 1 12 14
M  V30 14 1 13 14
M  V30 END BOND
M  V30 BEGIN COLLECTION
M  V30 MDLV30/STERAC1 ATOMS=(1 4)
M  V30 END COLLECTION
M  V30 END CTAB
M  END
>  <Molecule Name>
alpha-Cyclohexylbutyric acid, ethyl ester

>  <Activity Label>
0

>  <SMILES>
CCC(C1CCCCC1)C(OCC)=O

>  <Molecular Formula>
C12H22O2

>  <InChIKey>
LYOORHKVMBWDGN-UHFFFAOYSA-N

>  <Repellency>
Inactive

>  <Reference DOI>
10.3390/toxics11100837

>  <Target Organism>
Not applied

$$$$
Compound 489
Actelion Java MolfileCreator 2.0

  0  0  0  0  0  0              0 V3000
M  V30 BEGIN CTAB
M  V30 COUNTS 14 14 0 0 0
M  V30 BEGIN ATOM
M  V30 1 O 0.0 0.0 0.0 0
M  V30 2 C 1.2983 -0.7554 0.0 0
M  V30 3 O 1.2983 -2.2544 0.0 0
M  V30 4 C 2.5967 -0.0118 0.0 0
M  V30 5 C 0.0 -3.0098 0.0 0
M  V30 6 C 0.0 -4.5089 0.0 0
M  V30 7 C -1.2983 -2.2544 0.0 0
M  V30 8 C -1.2983 -5.2525 0.0 0
M  V30 9 C 1.2983 -5.2643 0.0 0
M  V30 10 C -2.5967 -2.998 0.0 0
M  V30 11 C -2.5967 -4.5089 0.0 0
M  V30 12 C 1.2983 -6.7633 0.0 0
M  V30 13 C 2.5967 -4.5207 0.0 0
M  V30 14 C -3.8951 -2.2426 0.0 0
M  V30 END ATOM
M  V30 BEGIN BOND
M  V30 1 2 1 2
M  V30 2 1 2 3
M  V30 3 1 2 4
M  V30 4 1 3 5
M  V30 5 2 5 6
M  V30 6 1 5 7
M  V30 7 1 6 8
M  V30 8 1 6 9
M  V30 9 2 7 10
M  V30 10 2 8 11
M  V30 11 1 9 12
M  V30 12 1 9 13
M  V30 13 1 10 14
M  V30 14 1 10 11
M  V30 END BOND
M  V30 END CTAB
M  END
>  <Molecule Name>
Acetic acid, thymyl ester

>  <Activity Label>
0

>  <SMILES>
CC(C)c(ccc(C)c1)c1OC(C)=O

>  <Molecular Formula>
C12H16O2

>  <InChIKey>
WFMIUXMJJBBOGJ-UHFFFAOYSA-N

>  <Repellency>
Inactive

>  <Reference DOI>
10.3390/toxics11100837

>  <Target Organism>
Not applied

$$$$
Compound 490
Actelion Java MolfileCreator 2.0

  0  0  0  0  0  0              0 V3000
M  V30 BEGIN CTAB
M  V30 COUNTS 14 14 0 0 0
M  V30 BEGIN ATOM
M  V30 1 O 0.0 0.0 0.0 0
M  V30 2 C 0.0 1.4994 0.0 0
M  V30 3 O -1.2987 2.2432 0.0 0
M  V30 4 C 1.2987 2.2432 0.0 0
M  V30 5 C -2.5974 1.4876 0.0 0
M  V30 6 C -2.5974 -0.0118 0.0 0
M  V30 7 C -3.8962 2.2432 0.0 0
M  V30 8 C -3.8962 -0.7556 0.0 0
M  V30 9 C -1.2987 -0.7674 0.0 0
M  V30 10 C -5.1949 1.4994 0.0 0
M  V30 11 C -5.1949 -0.0118 0.0 0
M  V30 12 C -6.4937 2.255 0.0 0
M  V30 13 C -6.4937 3.7545 0.0 0
M  V30 14 C -7.7924 1.5112 0.0 0
M  V30 END ATOM
M  V30 BEGIN BOND
M  V30 1 2 1 2
M  V30 2 1 2 3
M  V30 3 1 2 4
M  V30 4 1 3 5
M  V30 5 2 5 6
M  V30 6 1 5 7
M  V30 7 1 6 8
M  V30 8 1 6 9
M  V30 9 2 7 10
M  V30 10 2 8 11
M  V30 11 1 10 12
M  V30 12 1 12 13
M  V30 13 1 12 14
M  V30 14 1 10 11
M  V30 END BOND
M  V30 END CTAB
M  END
>  <Molecule Name>
Acetic acid, carvacryl ester

>  <Activity Label>
0

>  <SMILES>
CC(C)c1cc(OC(C)=O)c(C)cc1

>  <Molecular Formula>
C12H16O2

>  <InChIKey>
OXZSUQJHKQOGOK-UHFFFAOYSA-N

>  <Repellency>
Inactive

>  <Reference DOI>
10.3390/toxics11100837

>  <Target Organism>
Not applied

$$$$
Compound 491
Actelion Java MolfileCreator 2.0

  0  0  0  0  0  0              0 V3000
M  V30 BEGIN CTAB
M  V30 COUNTS 14 14 0 0 0
M  V30 BEGIN ATOM
M  V30 1 O 0.0 0.0 0.0 0
M  V30 2 C 0.0 1.4994 0.0 0
M  V30 3 O -1.2987 2.2432 0.0 0
M  V30 4 C 1.2987 2.2432 0.0 0
M  V30 5 C -2.5974 1.4876 0.0 0
M  V30 6 C 2.5974 1.4876 0.0 0
M  V30 7 C -3.8962 2.2314 0.0 0
M  V30 8 C 2.5974 -0.0118 0.0 0
M  V30 9 C 3.8962 2.2314 0.0 0
M  V30 10 C -3.8962 3.7309 0.0 0
M  V30 11 C -5.1949 1.4758 0.0 0
M  V30 12 C 3.8962 -0.7674 0.0 0
M  V30 13 C 5.1949 1.4876 0.0 0
M  V30 14 C 5.1949 -0.0236 0.0 0
M  V30 END ATOM
M  V30 BEGIN BOND
M  V30 1 2 1 2
M  V30 2 1 2 3
M  V30 3 1 2 4
M  V30 4 1 3 5
M  V30 5 1 4 6
M  V30 6 1 5 7
M  V30 7 2 6 8
M  V30 8 1 6 9
M  V30 9 1 7 10
M  V30 10 1 7 11
M  V30 11 1 8 12
M  V30 12 2 9 13
M  V30 13 2 12 14
M  V30 14 1 13 14
M  V30 END BOND
M  V30 END CTAB
M  END
>  <Molecule Name>
Phenylacetic acid, isobutyl ester

>  <Activity Label>
0

>  <SMILES>
CC(C)COC(Cc1ccccc1)=O

>  <Molecular Formula>
C12H16O2

>  <InChIKey>
RJASFPFZACBKBE-UHFFFAOYSA-N

>  <Repellency>
Inactive

>  <Reference DOI>
10.3390/toxics11100837

>  <Target Organism>
Not applied

$$$$
Compound 492
Actelion Java MolfileCreator 2.0

  0  0  0  0  0  0              0 V3000
M  V30 BEGIN CTAB
M  V30 COUNTS 14 14 0 0 0
M  V30 BEGIN ATOM
M  V30 1 O 0.0 0.0 0.0 0
M  V30 2 C 0.0 -1.5011 0.0 0
M  V30 3 O -1.3002 -2.2458 0.0 0
M  V30 4 C 1.3002 -2.2458 0.0 0
M  V30 5 C -2.6004 -1.5011 0.0 0 CFG=2
M  V30 6 C 2.6004 -1.5011 0.0 0
M  V30 7 C -3.9006 -2.2458 0.0 0
M  V30 8 C -2.6004 0.0 0.0 0
M  V30 9 C 3.9006 -2.2458 0.0 0
M  V30 10 C -5.2008 -1.4893 0.0 0
M  V30 11 C -3.9006 -3.7469 0.0 0
M  V30 12 C -6.501 -2.2339 0.0 0
M  V30 13 C -5.2008 -4.4916 0.0 0
M  V30 14 C -6.501 -3.7351 0.0 0
M  V30 END ATOM
M  V30 BEGIN BOND
M  V30 1 2 1 2
M  V30 2 1 2 3
M  V30 3 1 2 4
M  V30 4 1 3 5
M  V30 5 1 4 6
M  V30 6 1 5 7
M  V30 7 1 5 8 CFG=3
M  V30 8 1 6 9
M  V30 9 2 7 10
M  V30 10 1 7 11
M  V30 11 1 10 12
M  V30 12 2 11 13
M  V30 13 2 12 14
M  V30 14 1 13 14
M  V30 END BOND
M  V30 BEGIN COLLECTION
M  V30 MDLV30/STERAC1 ATOMS=(1 5)
M  V30 END COLLECTION
M  V30 END CTAB
M  END
>  <Molecule Name>
Butyric acid, 1-phenylethyl ester

>  <Activity Label>
0

>  <SMILES>
CCCC(OC(C)c1ccccc1)=O

>  <Molecular Formula>
C12H16O2

>  <InChIKey>
GGKADXREVJTZMF-UHFFFAOYSA-N

>  <Repellency>
Inactive

>  <Reference DOI>
10.3390/toxics11100837

>  <Target Organism>
Not applied

$$$$
Compound 493
Actelion Java MolfileCreator 2.0

  0  0  0  0  0  0              0 V3000
M  V30 BEGIN CTAB
M  V30 COUNTS 14 14 0 0 0
M  V30 BEGIN ATOM
M  V30 1 O 0.0 0.0 0.0 0
M  V30 2 C 0.0 1.5017 0.0 0
M  V30 3 O -1.3007 2.2467 0.0 0
M  V30 4 C 1.3007 2.2467 0.0 0
M  V30 5 C -2.6014 1.5017 0.0 0
M  V30 6 C 2.6014 1.5017 0.0 0
M  V30 7 C 1.3007 3.7485 0.0 0
M  V30 8 C -3.9022 2.2467 0.0 0
M  V30 9 C -3.3464 0.201 0.0 0
M  V30 10 C -1.8446 0.201 0.0 0
M  V30 11 C 3.9022 2.2467 0.0 0
M  V30 12 C 2.6014 4.4934 0.0 0
M  V30 13 C -5.2029 1.5017 0.0 0
M  V30 14 C 3.9022 3.7485 0.0 0
M  V30 END ATOM
M  V30 BEGIN BOND
M  V30 1 2 1 2
M  V30 2 1 2 3
M  V30 3 1 2 4
M  V30 4 1 3 5
M  V30 5 2 4 6
M  V30 6 1 4 7
M  V30 7 1 5 8
M  V30 8 1 5 9
M  V30 9 1 5 10
M  V30 10 1 6 11
M  V30 11 2 7 12
M  V30 12 1 8 13
M  V30 13 2 11 14
M  V30 14 1 12 14
M  V30 END BOND
M  V30 END CTAB
M  END
>  <Molecule Name>
Benzoic acid, tert-amyl ester

>  <Activity Label>
0

>  <SMILES>
CCC(C)(C)OC(c1ccccc1)=O

>  <Molecular Formula>
C12H16O2

>  <InChIKey>
VAQNNXXADMWCTA-UHFFFAOYSA-N

>  <Repellency>
Inactive

>  <Reference DOI>
10.3390/toxics11100837

>  <Target Organism>
Not applied

$$$$
Compound 494
Actelion Java MolfileCreator 2.0

  0  0  0  0  0  0              0 V3000
M  V30 BEGIN CTAB
M  V30 COUNTS 14 14 0 0 0
M  V30 BEGIN ATOM
M  V30 1 O 0.0 0.0 0.0 0
M  V30 2 C -1.2998 -0.7444 0.0 0
M  V30 3 C 1.2998 -0.7444 0.0 0
M  V30 4 C -2.5996 0.0118 0.0 0
M  V30 5 C -1.2998 -2.2451 0.0 0
M  V30 6 C 2.5996 0.0 0.0 0
M  V30 7 C -3.8994 -0.7326 0.0 0
M  V30 8 C -2.5996 -2.9895 0.0 0
M  V30 9 C 3.8994 -0.7444 0.0 0
M  V30 10 O -5.1992 0.0236 0.0 0
M  V30 11 C -3.8994 -2.2333 0.0 0
M  V30 12 C -6.4991 -0.7208 0.0 0
M  V30 13 C -7.7989 0.0354 0.0 0
M  V30 14 C -9.0987 -0.7089 0.0 0
M  V30 END ATOM
M  V30 BEGIN BOND
M  V30 1 1 1 2
M  V30 2 1 1 3
M  V30 3 2 2 4
M  V30 4 1 2 5
M  V30 5 1 3 6
M  V30 6 1 4 7
M  V30 7 2 5 8
M  V30 8 1 6 9
M  V30 9 1 7 10
M  V30 10 2 7 11
M  V30 11 1 10 12
M  V30 12 1 12 13
M  V30 13 1 13 14
M  V30 14 1 8 11
M  V30 END BOND
M  V30 END CTAB
M  END
>  <Molecule Name>
1,3-Di-n-propoxybenzene

>  <Activity Label>
0

>  <SMILES>
CCCOc1cccc(OCCC)c1

>  <Molecular Formula>
C12H18O2

>  <InChIKey>
UTFRNSPYRPYKDV-UHFFFAOYSA-N

>  <Repellency>
Inactive

>  <Reference DOI>
10.3390/toxics11100837

>  <Target Organism>
Not applied

$$$$
Compound 495
Actelion Java MolfileCreator 2.0

  0  0  0  0  0  0              0 V3000
M  V30 BEGIN CTAB
M  V30 COUNTS 14 14 0 0 0
M  V30 BEGIN ATOM
M  V30 1 O 0.0 0.0 0.0 0
M  V30 2 C 1.3 -0.7563 0.0 0
M  V30 3 C 1.3 -2.2573 0.0 0
M  V30 4 C 2.6 -3.0136 0.0 0
M  V30 5 C 0.0 -3.0018 0.0 0
M  V30 6 O 3.9 -2.2691 0.0 0
M  V30 7 C 2.6 -4.5146 0.0 0
M  V30 8 C 0.0 -4.5027 0.0 0
M  V30 9 C 5.2 -3.0136 0.0 0
M  V30 10 C 1.3 -5.2591 0.0 0
M  V30 11 C 6.5 -2.2691 0.0 0
M  V30 12 C 7.8001 -3.0136 0.0 0
M  V30 13 C 9.1001 -2.2691 0.0 0
M  V30 14 C 10.4001 -3.0136 0.0 0
M  V30 END ATOM
M  V30 BEGIN BOND
M  V30 1 2 1 2
M  V30 2 1 2 3
M  V30 3 2 3 4
M  V30 4 1 3 5
M  V30 5 1 4 6
M  V30 6 1 4 7
M  V30 7 2 5 8
M  V30 8 1 6 9
M  V30 9 2 7 10
M  V30 10 1 9 11
M  V30 11 1 11 12
M  V30 12 1 12 13
M  V30 13 1 13 14
M  V30 14 1 8 10
M  V30 END BOND
M  V30 END CTAB
M  END
>  <Molecule Name>
o-n-Amyloxybenzaldehyde

>  <Activity Label>
0

>  <SMILES>
CCCCCOc1c(C=O)cccc1

>  <Molecular Formula>
C12H16O2

>  <InChIKey>
KPLIYWNHNIPFQR-UHFFFAOYSA-N

>  <Repellency>
Inactive

>  <Reference DOI>
10.3390/toxics11100837

>  <Target Organism>
Not applied

$$$$
Compound 496
Actelion Java MolfileCreator 2.0

  0  0  0  0  0  0              0 V3000
M  V30 BEGIN CTAB
M  V30 COUNTS 14 14 0 0 0
M  V30 BEGIN ATOM
M  V30 1 O 0.0 0.0 0.0 0
M  V30 2 C -1.3001 -0.7446 0.0 0
M  V30 3 C 1.3001 -0.7446 0.0 0
M  V30 4 C -2.6003 0.0118 0.0 0
M  V30 5 C -1.3001 -2.2457 0.0 0
M  V30 6 C 2.6003 0.0 0.0 0
M  V30 7 C -3.9005 -0.7328 0.0 0
M  V30 8 C -2.6003 -2.9904 0.0 0
M  V30 9 C 3.9005 -0.7446 0.0 0
M  V30 10 C -3.9005 -2.2339 0.0 0
M  V30 11 C 5.2007 0.0 0.0 0
M  V30 12 C -5.2007 -2.9786 0.0 0
M  V30 13 C -6.5009 -2.2221 0.0 0
M  V30 14 O -7.8011 -2.9667 0.0 0
M  V30 END ATOM
M  V30 BEGIN BOND
M  V30 1 1 1 2
M  V30 2 1 1 3
M  V30 3 2 2 4
M  V30 4 1 2 5
M  V30 5 1 3 6
M  V30 6 1 4 7
M  V30 7 2 5 8
M  V30 8 1 6 9
M  V30 9 2 7 10
M  V30 10 1 9 11
M  V30 11 1 10 12
M  V30 12 1 12 13
M  V30 13 1 13 14
M  V30 14 1 8 10
M  V30 END BOND
M  V30 END CTAB
M  END
>  <Molecule Name>
p-Butoxyphenethyl alcohol

>  <Activity Label>
0

>  <SMILES>
CCCCOc1ccc(CCO)cc1

>  <Molecular Formula>
C12H18O2

>  <InChIKey>
OGDHARHCLWPETP-UHFFFAOYSA-N

>  <Repellency>
Inactive

>  <Reference DOI>
10.3390/toxics11100837

>  <Target Organism>
Not applied

$$$$
Compound 497
Actelion Java MolfileCreator 2.0

  0  0  0  0  0  0              0 V3000
M  V30 BEGIN CTAB
M  V30 COUNTS 14 14 0 0 0
M  V30 BEGIN ATOM
M  V30 1 O 0.0 0.0 0.0 0
M  V30 2 C -1.3 -0.7445 0.0 0
M  V30 3 C 1.3 -0.7445 0.0 0
M  V30 4 C -2.6 0.0118 0.0 0
M  V30 5 C -1.3 -2.2454 0.0 0
M  V30 6 C 2.6 0.0 0.0 0
M  V30 7 C -3.9 -0.7327 0.0 0
M  V30 8 C -2.6 -2.99 0.0 0
M  V30 9 C 2.6 1.5009 0.0 0
M  V30 10 C 3.9 -0.7445 0.0 0
M  V30 11 C -3.9 -2.2336 0.0 0
M  V30 12 C -5.2 -2.9782 0.0 0
M  V30 13 C -6.5 -2.2218 0.0 0
M  V30 14 O -7.8001 -2.9664 0.0 0
M  V30 END ATOM
M  V30 BEGIN BOND
M  V30 1 1 1 2
M  V30 2 1 1 3
M  V30 3 2 2 4
M  V30 4 1 2 5
M  V30 5 1 3 6
M  V30 6 1 4 7
M  V30 7 2 5 8
M  V30 8 2 6 9
M  V30 9 1 6 10
M  V30 10 2 7 11
M  V30 11 1 11 12
M  V30 12 1 12 13
M  V30 13 1 13 14
M  V30 14 1 8 11
M  V30 END BOND
M  V30 END CTAB
M  END
>  <Molecule Name>
p-Methallyloxyphenethyl alcohol

>  <Activity Label>
0

>  <SMILES>
CC(COc1ccc(CCO)cc1)=C

>  <Molecular Formula>
C12H16O2

>  <InChIKey>
GSYKQNXSBBOBFH-UHFFFAOYSA-N

>  <Repellency>
Inactive

>  <Reference DOI>
10.3390/toxics11100837

>  <Target Organism>
Not applied

$$$$
Compound 498
Actelion Java MolfileCreator 2.0

  0  0  0  0  0  0              0 V3000
M  V30 BEGIN CTAB
M  V30 COUNTS 14 14 0 0 0
M  V30 BEGIN ATOM
M  V30 1 O 0.0 0.0 0.0 0
M  V30 2 C -1.3 -0.7445 0.0 0
M  V30 3 C 1.3 -0.7445 0.0 0
M  V30 4 C -2.6 0.0118 0.0 0
M  V30 5 C -1.3 -2.2454 0.0 0
M  V30 6 C 2.6 0.0 0.0 0
M  V30 7 C -3.9 -0.7327 0.0 0
M  V30 8 C -2.6 -2.99 0.0 0
M  V30 9 C 3.9 -0.7445 0.0 0
M  V30 10 C 2.6 1.5009 0.0 0
M  V30 11 C -3.9 -2.2336 0.0 0
M  V30 12 C -5.2 -2.9782 0.0 0
M  V30 13 C -6.5 -2.2218 0.0 0
M  V30 14 O -7.8001 -2.9664 0.0 0
M  V30 END ATOM
M  V30 BEGIN BOND
M  V30 1 1 1 2
M  V30 2 1 1 3
M  V30 3 2 2 4
M  V30 4 1 2 5
M  V30 5 1 3 6
M  V30 6 1 4 7
M  V30 7 2 5 8
M  V30 8 1 6 9
M  V30 9 1 6 10
M  V30 10 2 7 11
M  V30 11 1 11 12
M  V30 12 1 12 13
M  V30 13 1 13 14
M  V30 14 1 8 11
M  V30 END BOND
M  V30 END CTAB
M  END
>  <Molecule Name>
p-iso-Butoxyphenethyl alcohol

>  <Activity Label>
0

>  <SMILES>
CC(C)COc1ccc(CCO)cc1

>  <Molecular Formula>
C12H18O2

>  <InChIKey>
LJSXOXDYTHBFIT-UHFFFAOYSA-N

>  <Repellency>
Inactive

>  <Reference DOI>
10.3390/toxics11100837

>  <Target Organism>
Not applied

$$$$
Compound 499
Actelion Java MolfileCreator 2.0

  0  0  0  0  0  0              0 V3000
M  V30 BEGIN CTAB
M  V30 COUNTS 14 14 0 0 0
M  V30 BEGIN ATOM
M  V30 1 O 0.0 0.0 0.0 0
M  V30 2 C -1.3 -0.7445 0.0 0
M  V30 3 C 1.3 -0.7445 0.0 0 CFG=2
M  V30 4 C -2.6 0.0118 0.0 0
M  V30 5 C -1.3 -2.2454 0.0 0
M  V30 6 C 2.6 0.0 0.0 0
M  V30 7 C 1.3 -2.2454 0.0 0
M  V30 8 C -3.9 -0.7327 0.0 0
M  V30 9 C -2.6 -2.99 0.0 0
M  V30 10 C 3.9 -0.7445 0.0 0
M  V30 11 C -3.9 -2.2336 0.0 0
M  V30 12 C -5.2 -2.9782 0.0 0
M  V30 13 C -6.5 -2.2218 0.0 0
M  V30 14 O -7.8001 -2.9664 0.0 0
M  V30 END ATOM
M  V30 BEGIN BOND
M  V30 1 1 1 2
M  V30 2 1 1 3
M  V30 3 2 2 4
M  V30 4 1 2 5
M  V30 5 1 3 6
M  V30 6 1 3 7 CFG=3
M  V30 7 1 4 8
M  V30 8 2 5 9
M  V30 9 1 6 10
M  V30 10 2 8 11
M  V30 11 1 11 12
M  V30 12 1 12 13
M  V30 13 1 13 14
M  V30 14 1 9 11
M  V30 END BOND
M  V30 BEGIN COLLECTION
M  V30 MDLV30/STERAC1 ATOMS=(1 3)
M  V30 END COLLECTION
M  V30 END CTAB
M  END
>  <Molecule Name>
p-sec-Butoxyphenethyl alcohol

>  <Activity Label>
0

>  <SMILES>
CCC(C)Oc1ccc(CCO)cc1

>  <Molecular Formula>
C12H18O2

>  <InChIKey>
UPZKHLPACSXXIW-UHFFFAOYSA-N

>  <Repellency>
Inactive

>  <Reference DOI>
10.3390/toxics11100837

>  <Target Organism>
Not applied

$$$$
Compound 500
Actelion Java MolfileCreator 2.0

  0  0  0  0  0  0              0 V3000
M  V30 BEGIN CTAB
M  V30 COUNTS 14 14 0 0 0
M  V30 BEGIN ATOM
M  V30 1 O 0.0 0.0 0.0 0
M  V30 2 C 0.0 1.4992 0.0 0
M  V30 3 C -1.2985 -0.7437 0.0 0
M  V30 4 O -1.2985 2.2547 0.0 0
M  V30 5 C 1.2985 2.2429 0.0 0
M  V30 6 C 1.2985 0.7437 0.0 0
M  V30 7 C -2.5971 0.0 0.0 0
M  V30 8 C -2.054 -2.0422 0.0 0
M  V30 9 C -0.5548 -2.0422 0.0 0
M  V30 10 C -2.5971 1.511 0.0 0
M  V30 11 C 2.5971 1.4874 0.0 0
M  V30 12 C -3.8956 2.2665 0.0 0
M  V30 13 C 3.8956 2.2311 0.0 0
M  V30 14 C 2.5971 -0.0118 0.0 0
M  V30 END ATOM
M  V30 BEGIN BOND
M  V30 1 1 1 2
M  V30 2 1 1 3
M  V30 3 1 2 4
M  V30 4 1 2 5
M  V30 5 1 2 6
M  V30 6 1 3 7
M  V30 7 1 3 8
M  V30 8 1 3 9
M  V30 9 1 4 10
M  V30 10 1 5 11
M  V30 11 1 10 12
M  V30 12 1 11 13
M  V30 13 1 11 14
M  V30 14 1 7 10
M  V30 END BOND
M  V30 END CTAB
M  END
>  <Molecule Name>
2-iso-Butyl-2,4,4,6-tetramethyl-m-dioxane

>  <Activity Label>
0

>  <SMILES>
CC(C)CC1(C)OC(C)(C)CC(C)O1

>  <Molecular Formula>
C12H24O2

>  <InChIKey>
BRJZZGKADWCWPC-UHFFFAOYSA-N

>  <Repellency>
Inactive

>  <Reference DOI>
10.3390/toxics11100837

>  <Target Organism>
Not applied

$$$$
Compound 501
Actelion Java MolfileCreator 2.0

  0  0  0  0  0  0              0 V3000
M  V30 BEGIN CTAB
M  V30 COUNTS 14 14 0 0 0
M  V30 BEGIN ATOM
M  V30 1 O 0.0 0.0 0.0 0
M  V30 2 C -1.2998 -0.7444 0.0 0
M  V30 3 C 1.2998 -0.7444 0.0 0
M  V30 4 C -2.5996 0.0118 0.0 0
M  V30 5 C -1.2998 -2.2451 0.0 0
M  V30 6 C 2.5996 0.0 0.0 0
M  V30 7 C -3.8995 -0.7326 0.0 0
M  V30 8 C -2.5996 1.5125 0.0 0
M  V30 9 C -2.5996 -2.9896 0.0 0
M  V30 10 C 3.8995 -0.7444 0.0 0
M  V30 11 C -3.8995 -2.2333 0.0 0
M  V30 12 O -3.8995 2.2688 0.0 0
M  V30 13 C 5.1993 0.0 0.0 0
M  V30 14 C 3.8995 -2.2451 0.0 0
M  V30 END ATOM
M  V30 BEGIN BOND
M  V30 1 1 1 2
M  V30 2 1 1 3
M  V30 3 2 2 4
M  V30 4 1 2 5
M  V30 5 1 3 6
M  V30 6 1 4 7
M  V30 7 1 4 8
M  V30 8 2 5 9
M  V30 9 1 6 10
M  V30 10 2 7 11
M  V30 11 1 8 12
M  V30 12 1 10 13
M  V30 13 1 10 14
M  V30 14 1 9 11
M  V30 END BOND
M  V30 END CTAB
M  END
>  <Molecule Name>
o-iso-Amyloxybenzyl alcohol

>  <Activity Label>
0

>  <SMILES>
CC(C)CCOc1c(CO)cccc1

>  <Molecular Formula>
C12H18O2

>  <InChIKey>
GTEGHPBVQPNFEI-UHFFFAOYSA-N

>  <Repellency>
Inactive

>  <Reference DOI>
10.3390/toxics11100837

>  <Target Organism>
Not applied

$$$$
Compound 502
Actelion Java MolfileCreator 2.0

  0  0  0  0  0  0              0 V3000
M  V30 BEGIN CTAB
M  V30 COUNTS 14 14 0 0 0
M  V30 BEGIN ATOM
M  V30 1 Cl 0.0 0.0 0.0 0
M  V30 2 C 0.0 -1.5013 0.0 0
M  V30 3 C 1.3003 -2.2579 0.0 0
M  V30 4 C -1.3003 -2.2461 0.0 0
M  V30 5 O 2.6007 -1.5131 0.0 0
M  V30 6 C 1.3003 -3.7592 0.0 0
M  V30 7 C -1.3003 -3.7474 0.0 0
M  V30 8 C 3.9011 -2.2579 0.0 0
M  V30 9 C 0.0 -4.504 0.0 0
M  V30 10 C 5.2015 -1.5131 0.0 0
M  V30 11 O 6.5019 -2.2579 0.0 0
M  V30 12 C 7.8023 -1.5131 0.0 0
M  V30 13 C 9.1026 -2.2579 0.0 0
M  V30 14 Cl 10.403 -1.5131 0.0 0
M  V30 END ATOM
M  V30 BEGIN BOND
M  V30 1 1 1 2
M  V30 2 2 2 3
M  V30 3 1 2 4
M  V30 4 1 3 5
M  V30 5 1 3 6
M  V30 6 2 4 7
M  V30 7 1 5 8
M  V30 8 2 6 9
M  V30 9 1 8 10
M  V30 10 1 10 11
M  V30 11 1 11 12
M  V30 12 1 12 13
M  V30 13 1 13 14
M  V30 14 1 7 9
M  V30 END BOND
M  V30 END CTAB
M  END
>  <Molecule Name>
1-(2-Chloroethoxy)-2-(2-chlorophenoxy) ethane

>  <Activity Label>
0

>  <SMILES>
ClCCOCCOc(cccc1)c1Cl

>  <Molecular Formula>
C10H12O2Cl2

>  <InChIKey>
XXBDLMVHBXTXDI-UHFFFAOYSA-N

>  <Repellency>
Inactive

>  <Reference DOI>
10.3390/toxics11100837

>  <Target Organism>
Not applied

$$$$
Compound 503
Actelion Java MolfileCreator 2.0

  0  0  0  0  0  0              0 V3000
M  V30 BEGIN CTAB
M  V30 COUNTS 14 14 0 0 0
M  V30 BEGIN ATOM
M  V30 1 Cl 0.0 0.0 0.0 0
M  V30 2 C -1.2985 0.7555 0.0 0
M  V30 3 C -1.2985 2.2547 0.0 0
M  V30 4 C -2.5971 0.0118 0.0 0
M  V30 5 C -2.5971 3.0102 0.0 0
M  V30 6 C -3.8956 0.7555 0.0 0
M  V30 7 C -3.8956 2.2665 0.0 0
M  V30 8 C -5.1942 3.0102 0.0 0
M  V30 9 O -5.1942 4.5095 0.0 0
M  V30 10 O -6.4927 2.2547 0.0 0
M  V30 11 C -7.7913 2.9984 0.0 0
M  V30 12 C -9.0898 2.2429 0.0 0
M  V30 13 C -10.3884 2.9866 0.0 0
M  V30 14 C -11.687 2.2311 0.0 0
M  V30 END ATOM
M  V30 BEGIN BOND
M  V30 1 1 1 2
M  V30 2 2 2 3
M  V30 3 1 2 4
M  V30 4 1 3 5
M  V30 5 2 4 6
M  V30 6 2 5 7
M  V30 7 1 7 8
M  V30 8 2 8 9
M  V30 9 1 8 10
M  V30 10 1 10 11
M  V30 11 1 11 12
M  V30 12 1 12 13
M  V30 13 1 13 14
M  V30 14 1 6 7
M  V30 END BOND
M  V30 END CTAB
M  END
>  <Molecule Name>
p-Chlorobenzoic acid, n-butyl ester

>  <Activity Label>
0

>  <SMILES>
CCCCOC(c(cc1)ccc1Cl)=O

>  <Molecular Formula>
C11H13O2Cl

>  <InChIKey>
PBPVJPWUWLGOEC-UHFFFAOYSA-N

>  <Repellency>
Inactive

>  <Reference DOI>
10.3390/toxics11100837

>  <Target Organism>
Not applied

$$$$
Compound 504
Actelion Java MolfileCreator 2.0

  0  0  0  0  0  0              0 V3000
M  V30 BEGIN CTAB
M  V30 COUNTS 14 14 0 0 0
M  V30 BEGIN ATOM
M  V30 1 Cl 0.0 0.0 0.0 0
M  V30 2 C -1.2991 -0.744 0.0 0
M  V30 3 C -2.5982 0.0 0.0 0
M  V30 4 C -1.2991 -2.2439 0.0 0
M  V30 5 C -3.8973 -0.744 0.0 0
M  V30 6 C -2.5982 -2.9997 0.0 0
M  V30 7 C -3.8973 -2.2439 0.0 0
M  V30 8 C -5.1964 -2.9997 0.0 0
M  V30 9 C -6.4955 -2.2557 0.0 0
M  V30 10 O -6.4955 -0.7558 0.0 0
M  V30 11 C -7.7946 -3.0115 0.0 0
M  V30 12 C -9.0937 -2.2675 0.0 0
M  V30 13 O -10.3929 -3.0233 0.0 0
M  V30 14 C -9.0937 -0.7676 0.0 0
M  V30 END ATOM
M  V30 BEGIN BOND
M  V30 1 1 1 2
M  V30 2 2 2 3
M  V30 3 1 2 4
M  V30 4 1 3 5
M  V30 5 2 4 6
M  V30 6 2 5 7
M  V30 7 1 7 8
M  V30 8 1 8 9
M  V30 9 1 9 10
M  V30 10 1 9 11
M  V30 11 1 11 12
M  V30 12 1 12 13
M  V30 13 1 12 14
M  V30 14 1 6 7
M  V30 END BOND
M  V30 END CTAB
M  END
>  <Molecule Name>
1-(p-Chlorophenyl)-2,4-pentanediol

>  <Activity Label>
0

>  <SMILES>
CC(CC(Cc(cc1)ccc1Cl)O)O

>  <Molecular Formula>
C11H15O2Cl

>  <InChIKey>
MMWWCNPTOCMUQL-UHFFFAOYSA-N

>  <Repellency>
Inactive

>  <Reference DOI>
10.3390/toxics11100837

>  <Target Organism>
Not applied

$$$$
Compound 505
Actelion Java MolfileCreator 2.0

  0  0  0  0  0  0              0 V3000
M  V30 BEGIN CTAB
M  V30 COUNTS 14 14 0 0 0
M  V30 BEGIN ATOM
M  V30 1 O 0.0 0.0 0.0 0
M  V30 2 C 0.0 -1.5013 0.0 0 CFG=2
M  V30 3 C -1.3003 -2.2461 0.0 0
M  V30 4 C 1.3003 -2.2461 0.0 0
M  V30 5 C -2.6007 -1.4895 0.0 0
M  V30 6 C -1.3003 -3.7474 0.0 0
M  V30 7 C 2.6007 -1.5013 0.0 0
M  V30 8 C -3.9011 -2.2342 0.0 0
M  V30 9 C -2.6007 -4.4922 0.0 0
M  V30 10 C 3.9011 -2.2461 0.0 0
M  V30 11 C -3.9011 -3.7356 0.0 0
M  V30 12 C 5.2015 -1.5013 0.0 0
M  V30 13 C 6.5019 -2.2461 0.0 0
M  V30 14 C 7.8023 -1.5013 0.0 0
M  V30 END ATOM
M  V30 BEGIN BOND
M  V30 1 1 2 1 CFG=1
M  V30 2 1 2 3
M  V30 3 1 2 4
M  V30 4 2 3 5
M  V30 5 1 3 6
M  V30 6 1 4 7
M  V30 7 1 5 8
M  V30 8 2 6 9
M  V30 9 1 7 10
M  V30 10 2 8 11
M  V30 11 1 10 12
M  V30 12 1 12 13
M  V30 13 1 13 14
M  V30 14 1 9 11
M  V30 END BOND
M  V30 BEGIN COLLECTION
M  V30 MDLV30/STERAC1 ATOMS=(1 2)
M  V30 END COLLECTION
M  V30 END CTAB
M  END
>  <Molecule Name>
n-Hexylphenylcarbinol

>  <Activity Label>
0

>  <SMILES>
CCCCCCC(c1ccccc1)O

>  <Molecular Formula>
C13H20O

>  <InChIKey>
UAJVCELPUNHGKE-UHFFFAOYSA-N

>  <Repellency>
Inactive

>  <Reference DOI>
10.3390/toxics11100837

>  <Target Organism>
Not applied

$$$$
Compound 506
Actelion Java MolfileCreator 2.0

  0  0  0  0  0  0              0 V3000
M  V30 BEGIN CTAB
M  V30 COUNTS 14 14 0 0 0
M  V30 BEGIN ATOM
M  V30 1 O 0.0 0.0 0.0 0
M  V30 2 C -1.3005 0.7448 0.0 0
M  V30 3 C 1.3005 0.7448 0.0 0
M  V30 4 C -2.6011 0.0 0.0 0
M  V30 5 C 2.6011 0.0 0.0 0
M  V30 6 C -3.9016 0.7448 0.0 0
M  V30 7 C 3.9016 0.7448 0.0 0
M  V30 8 C -5.2022 0.0 0.0 0
M  V30 9 C 5.2022 0.0 0.0 0
M  V30 10 C -6.5027 0.7566 0.0 0
M  V30 11 C -5.2022 -1.5015 0.0 0
M  V30 12 C -7.8033 0.0118 0.0 0
M  V30 13 C -6.5027 -2.2464 0.0 0
M  V30 14 C -7.8033 -1.4897 0.0 0
M  V30 END ATOM
M  V30 BEGIN BOND
M  V30 1 1 1 2
M  V30 2 1 1 3
M  V30 3 1 2 4
M  V30 4 1 3 5
M  V30 5 1 4 6
M  V30 6 1 5 7
M  V30 7 1 6 8
M  V30 8 1 7 9
M  V30 9 2 8 10
M  V30 10 1 8 11
M  V30 11 1 10 12
M  V30 12 2 11 13
M  V30 13 2 12 14
M  V30 14 1 13 14
M  V30 END BOND
M  V30 END CTAB
M  END
>  <Molecule Name>
gamma-Phenylpropyl n-butyl ether

>  <Activity Label>
0

>  <SMILES>
CCCCOCCCc1ccccc1

>  <Molecular Formula>
C13H20O

>  <InChIKey>
HBNXEOCFROWXQQ-UHFFFAOYSA-N

>  <Repellency>
Inactive

>  <Reference DOI>
10.3390/toxics11100837

>  <Target Organism>
Not applied

$$$$
Compound 507
Actelion Java MolfileCreator 2.0

  0  0  0  0  0  0              0 V3000
M  V30 BEGIN CTAB
M  V30 COUNTS 14 14 0 0 0
M  V30 BEGIN ATOM
M  V30 1 Cl 0.0 0.0 0.0 0
M  V30 2 C 0.0 1.4996 0.0 0
M  V30 3 C -1.2989 2.2435 0.0 0
M  V30 4 C 1.2989 2.2553 0.0 0
M  V30 5 O -2.5978 1.4878 0.0 0
M  V30 6 C -1.2989 3.7432 0.0 0
M  V30 7 C 1.2989 3.755 0.0 0
M  V30 8 C -3.8967 2.2317 0.0 0
M  V30 9 Cl -2.5978 4.4871 0.0 0
M  V30 10 C 0.0 4.4989 0.0 0
M  V30 11 Cl 2.5978 4.5107 0.0 0
M  V30 12 C -5.1956 1.476 0.0 0
M  V30 13 C -6.4946 2.2199 0.0 0
M  V30 14 Cl -7.7935 1.4642 0.0 0
M  V30 END ATOM
M  V30 BEGIN BOND
M  V30 1 1 1 2
M  V30 2 2 2 3
M  V30 3 1 2 4
M  V30 4 1 3 5
M  V30 5 1 3 6
M  V30 6 2 4 7
M  V30 7 1 5 8
M  V30 8 1 6 9
M  V30 9 2 6 10
M  V30 10 1 7 11
M  V30 11 1 8 12
M  V30 12 1 12 13
M  V30 13 1 13 14
M  V30 14 1 7 10
M  V30 END BOND
M  V30 END CTAB
M  END
>  <Molecule Name>
3-Chloropropyl 2,4,6-trichlorophenyl ether

>  <Activity Label>
0

>  <SMILES>
ClCCCOc(c(Cl)cc(Cl)c1)c1Cl

>  <Molecular Formula>
C9H8OCl4

>  <InChIKey>
HFDUAEWRENZJJL-UHFFFAOYSA-N

>  <Repellency>
Inactive

>  <Reference DOI>
10.3390/toxics11100837

>  <Target Organism>
Not applied

$$$$
Compound 508
Actelion Java MolfileCreator 2.0

  0  0  0  0  0  0              0 V3000
M  V30 BEGIN CTAB
M  V30 COUNTS 14 14 0 0 0
M  V30 BEGIN ATOM
M  V30 1 Cl 0.0 0.0 0.0 0
M  V30 2 C 0.0 -1.5009 0.0 0
M  V30 3 C 1.3 -2.2454 0.0 0
M  V30 4 C -1.3 -2.2573 0.0 0
M  V30 5 O 2.6 -1.5009 0.0 0
M  V30 6 C 1.3 -3.7464 0.0 0
M  V30 7 C -1.3 -3.7582 0.0 0
M  V30 8 C 3.9 -2.2454 0.0 0
M  V30 9 C 0.0 -4.5027 0.0 0
M  V30 10 C -2.6 -4.5027 0.0 0
M  V30 11 C -3.9 -3.7582 0.0 0
M  V30 12 C -3.3445 -5.8028 0.0 0
M  V30 13 C -1.8436 -5.8028 0.0 0
M  V30 14 C -5.2 -4.5027 0.0 0
M  V30 END ATOM
M  V30 BEGIN BOND
M  V30 1 1 1 2
M  V30 2 2 2 3
M  V30 3 1 2 4
M  V30 4 1 3 5
M  V30 5 1 3 6
M  V30 6 2 4 7
M  V30 7 1 5 8
M  V30 8 2 6 9
M  V30 9 1 7 10
M  V30 10 1 10 11
M  V30 11 1 10 12
M  V30 12 1 10 13
M  V30 13 1 11 14
M  V30 14 1 7 9
M  V30 END BOND
M  V30 END CTAB
M  END
>  <Molecule Name>
2-Chloro-4-tert-amylphenyl methyl ether

>  <Activity Label>
0

>  <SMILES>
CCC(C)(C)c(cc1)cc(Cl)c1OC

>  <Molecular Formula>
C12H17OCl

>  <InChIKey>
CDWPNHXQMUHIBQ-UHFFFAOYSA-N

>  <Repellency>
Inactive

>  <Reference DOI>
10.3390/toxics11100837

>  <Target Organism>
Not applied

$$$$
Compound 509
Actelion Java MolfileCreator 2.0

  0  0  0  0  0  0              0 V3000
M  V30 BEGIN CTAB
M  V30 COUNTS 14 14 0 0 0
M  V30 BEGIN ATOM
M  V30 1 S 0.0 0.0 0.0 0
M  V30 2 C -1.3688 -0.6136 0.0 0
M  V30 3 C 1.003 -1.1092 0.0 0
M  V30 4 C -2.6669 0.1416 0.0 0
M  V30 5 C -1.2154 -2.1004 0.0 0
M  V30 6 C 0.2478 -2.4072 0.0 0
M  V30 7 O -2.6669 1.6402 0.0 0
M  V30 8 C -3.9649 -0.6136 0.0 0
M  V30 9 C -5.263 0.1416 0.0 0
M  V30 10 C -6.561 -0.6136 0.0 0
M  V30 11 C -7.8591 0.1416 0.0 0
M  V30 12 C -9.1571 -0.6136 0.0 0
M  V30 13 C -10.4552 0.1416 0.0 0
M  V30 14 C -11.7532 -0.6136 0.0 0
M  V30 END ATOM
M  V30 BEGIN BOND
M  V30 1 1 1 2
M  V30 2 1 1 3
M  V30 3 1 2 4
M  V30 4 2 2 5
M  V30 5 2 3 6
M  V30 6 2 4 7
M  V30 7 1 4 8
M  V30 8 1 8 9
M  V30 9 1 9 10
M  V30 10 1 10 11
M  V30 11 1 11 12
M  V30 12 1 12 13
M  V30 13 1 13 14
M  V30 14 1 5 6
M  V30 END BOND
M  V30 END CTAB
M  END
>  <Molecule Name>
alpha-Ethyl amyl 2-thienyl ketone

>  <Activity Label>
0

>  <SMILES>
CCCCCCCC(c1ccc[s]1)=O

>  <Molecular Formula>
C12H18OS

>  <InChIKey>
QRJZCQOLJVIBDE-UHFFFAOYSA-N

>  <Repellency>
Inactive

>  <Reference DOI>
10.3390/toxics11100837

>  <Target Organism>
Not applied

$$$$
Compound 510
Actelion Java MolfileCreator 2.0

  0  0  0  0  0  0              0 V3000
M  V30 BEGIN CTAB
M  V30 COUNTS 14 14 0 0 0
M  V30 BEGIN ATOM
M  V30 1 Br 0.0 0.0 0.0 0
M  V30 2 C -1.3005 0.7448 0.0 0
M  V30 3 C -2.6011 0.0 0.0 0
M  V30 4 O -3.9016 0.7448 0.0 0
M  V30 5 C -5.2022 0.0 0.0 0
M  V30 6 C -6.5027 0.7566 0.0 0
M  V30 7 C -5.2022 -1.5015 0.0 0
M  V30 8 C -7.8033 0.0118 0.0 0
M  V30 9 C -6.5027 -2.2464 0.0 0
M  V30 10 C -7.8033 -1.4897 0.0 0
M  V30 11 C -9.1038 -2.2345 0.0 0
M  V30 12 C -8.359 -3.5351 0.0 0
M  V30 13 C -10.4044 -2.9794 0.0 0
M  V30 14 C -9.8487 -0.934 0.0 0
M  V30 END ATOM
M  V30 BEGIN BOND
M  V30 1 1 1 2
M  V30 2 1 2 3
M  V30 3 1 3 4
M  V30 4 1 4 5
M  V30 5 2 5 6
M  V30 6 1 5 7
M  V30 7 1 6 8
M  V30 8 2 7 9
M  V30 9 2 8 10
M  V30 10 1 10 11
M  V30 11 1 11 12
M  V30 12 1 11 13
M  V30 13 1 11 14
M  V30 14 1 9 10
M  V30 END BOND
M  V30 END CTAB
M  END
>  <Molecule Name>
beta-Bromo-4-tert-butyl-phenetole

>  <Activity Label>
0

>  <SMILES>
CC(C)(C)c(cc1)ccc1OCCBr

>  <Molecular Formula>
C12H17OBr

>  <InChIKey>
FUKSVLFLNLWAFM-UHFFFAOYSA-N

>  <Repellency>
Inactive

>  <Reference DOI>
10.3390/toxics11100837

>  <Target Organism>
Not applied

$$$$
Compound 511
Actelion Java MolfileCreator 2.0

  0  0  0  0  0  0              0 V3000
M  V30 BEGIN CTAB
M  V30 COUNTS 14 14 0 0 0
M  V30 BEGIN ATOM
M  V30 1 O 0.0 0.0 0.0 0
M  V30 2 C -1.3011 -0.7451 0.0 0
M  V30 3 C -2.6022 0.0 0.0 0
M  V30 4 C -1.3011 -2.2473 0.0 0
M  V30 5 O -3.9033 -0.7451 0.0 0
M  V30 6 O -2.6022 1.5021 0.0 0
M  V30 7 C -5.2044 0.0 0.0 0
M  V30 8 C -3.9033 2.2473 0.0 0
M  V30 9 C -5.2044 1.5021 0.0 0
M  V30 10 C -6.5055 -0.7451 0.0 0
M  V30 11 C -6.5055 2.2473 0.0 0
M  V30 12 C -7.8066 0.0 0.0 0
M  V30 13 C -7.8066 1.5021 0.0 0
M  V30 14 C -9.1078 -0.7451 0.0 0
M  V30 END ATOM
M  V30 BEGIN BOND
M  V30 1 2 1 2
M  V30 2 1 2 3
M  V30 3 1 2 4
M  V30 4 1 3 5
M  V30 5 1 3 6
M  V30 6 1 5 7
M  V30 7 1 6 8
M  V30 8 1 7 9
M  V30 9 1 7 10
M  V30 10 1 9 11
M  V30 11 1 10 12
M  V30 12 1 11 13
M  V30 13 1 12 14
M  V30 14 1 8 9
M  V30 END BOND
M  V30 END CTAB
M  END
>  <Molecule Name>
5-Ethyl-4-propyl-2-m-dioxanyl methyl ketone

>  <Activity Label>
0

>  <SMILES>
CCCC1OC(C(C)=O)OCC1CC

>  <Molecular Formula>
C11H20O3

>  <InChIKey>
XTYZYHQYDGHJGJ-UHFFFAOYSA-N

>  <Repellency>
Inactive

>  <Reference DOI>
10.3390/toxics11100837

>  <Target Organism>
Not applied

$$$$
Compound 512
Actelion Java MolfileCreator 2.0

  0  0  0  0  0  0              0 V3000
M  V30 BEGIN CTAB
M  V30 COUNTS 14 14 0 0 0
M  V30 BEGIN ATOM
M  V30 1 O 0.0 0.0 0.0 0
M  V30 2 C 0.0 -1.4992 0.0 0
M  V30 3 O -1.2985 -2.2547 0.0 0
M  V30 4 C 1.2985 -2.2547 0.0 0
M  V30 5 C -2.5971 -1.511 0.0 0
M  V30 6 C 1.2985 -3.754 0.0 0
M  V30 7 C 2.5971 -1.511 0.0 0
M  V30 8 C -3.8956 -2.2665 0.0 0
M  V30 9 O 0.0 -4.4977 0.0 0
M  V30 10 C 2.5971 -4.5095 0.0 0
M  V30 11 C 3.8956 -2.2547 0.0 0
M  V30 12 C -5.1942 -1.5228 0.0 0
M  V30 13 C 3.8956 -3.7658 0.0 0
M  V30 14 C -6.4927 -2.2783 0.0 0
M  V30 END ATOM
M  V30 BEGIN BOND
M  V30 1 2 1 2
M  V30 2 1 2 3
M  V30 3 1 2 4
M  V30 4 1 3 5
M  V30 5 2 4 6
M  V30 6 1 4 7
M  V30 7 1 5 8
M  V30 8 1 6 9
M  V30 9 1 6 10
M  V30 10 2 7 11
M  V30 11 1 8 12
M  V30 12 2 10 13
M  V30 13 1 12 14
M  V30 14 1 11 13
M  V30 END BOND
M  V30 END CTAB
M  END
>  <Molecule Name>
Salicylic acid, n-butyl ester

>  <Activity Label>
0

>  <SMILES>
CCCCOC(c(cccc1)c1O)=O

>  <Molecular Formula>
C11H14O3

>  <InChIKey>
YFDUWSBGVPBWKF-UHFFFAOYSA-N

>  <Repellency>
Inactive

>  <Reference DOI>
10.3390/toxics11100837

>  <Target Organism>
Not applied

$$$$
Compound 513
Actelion Java MolfileCreator 2.0

  0  0  0  0  0  0              0 V3000
M  V30 BEGIN CTAB
M  V30 COUNTS 14 14 0 0 0
M  V30 BEGIN ATOM
M  V30 1 O 0.0 0.0 0.0 0
M  V30 2 C 0.0 1.5007 0.0 0
M  V30 3 O -1.2998 2.2451 0.0 0
M  V30 4 C 1.2998 2.2451 0.0 0
M  V30 5 C -2.5996 1.5007 0.0 0
M  V30 6 C 2.5996 1.5007 0.0 0
M  V30 7 C -3.8995 2.257 0.0 0
M  V30 8 C -2.5996 0.0 0.0 0
M  V30 9 O 3.8995 2.2451 0.0 0
M  V30 10 C 2.5996 0.0 0.0 0
M  V30 11 C -5.1993 1.5125 0.0 0
M  V30 12 C -3.8995 -0.7444 0.0 0
M  V30 13 C -5.1993 0.0118 0.0 0
M  V30 14 C -6.4992 2.2688 0.0 0
M  V30 END ATOM
M  V30 BEGIN BOND
M  V30 1 2 1 2
M  V30 2 1 2 3
M  V30 3 1 2 4
M  V30 4 1 3 5
M  V30 5 1 4 6
M  V30 6 1 5 7
M  V30 7 1 5 8
M  V30 8 2 6 9
M  V30 9 1 6 10
M  V30 10 1 7 11
M  V30 11 1 8 12
M  V30 12 1 11 13
M  V30 13 1 11 14
M  V30 14 1 12 13
M  V30 END BOND
M  V30 END CTAB
M  END
>  <Molecule Name>
Acetoacetic acid, 3-methylcyclohexyl ester

>  <Activity Label>
0

>  <SMILES>
CC(CCC1)CC1OC(CC(C)=O)=O

>  <Molecular Formula>
C11H18O3

>  <InChIKey>
OIAKUTVNEUKVMM-UHFFFAOYSA-N

>  <Repellency>
Inactive

>  <Reference DOI>
10.3390/toxics11100837

>  <Target Organism>
Not applied

$$$$
Compound 514
Actelion Java MolfileCreator 2.0

  0  0  0  0  0  0              0 V3000
M  V30 BEGIN CTAB
M  V30 COUNTS 14 14 0 0 0
M  V30 BEGIN ATOM
M  V30 1 O 0.0 0.0 0.0 0
M  V30 2 C 0.0 1.5013 0.0 0
M  V30 3 O 1.3003 2.2461 0.0 0
M  V30 4 C -1.3003 2.2461 0.0 0
M  V30 5 C 2.6007 1.5013 0.0 0
M  V30 6 C -2.6007 1.5013 0.0 0
M  V30 7 O -3.9011 2.2461 0.0 0
M  V30 8 C -5.2015 1.5013 0.0 0
M  V30 9 C -6.5019 2.2579 0.0 0
M  V30 10 C -5.2015 0.0 0.0 0
M  V30 11 C -7.8023 1.5131 0.0 0
M  V30 12 C -6.5019 -0.7447 0.0 0
M  V30 13 C -7.8023 0.0118 0.0 0
M  V30 14 C -9.1026 -0.7329 0.0 0
M  V30 END ATOM
M  V30 BEGIN BOND
M  V30 1 2 1 2
M  V30 2 1 2 3
M  V30 3 1 2 4
M  V30 4 1 3 5
M  V30 5 1 4 6
M  V30 6 1 6 7
M  V30 7 1 7 8
M  V30 8 2 8 9
M  V30 9 1 8 10
M  V30 10 1 9 11
M  V30 11 2 10 12
M  V30 12 2 11 13
M  V30 13 1 13 14
M  V30 14 1 12 13
M  V30 END BOND
M  V30 END CTAB
M  END
>  <Molecule Name>
beta- (p-Tolyloxy)propionic acid methyl ester

>  <Activity Label>
0

>  <SMILES>
Cc(cc1)ccc1OCCC(OC)=O

>  <Molecular Formula>
C11H14O3

>  <InChIKey>
BVRVMPKPSNDZLA-UHFFFAOYSA-N

>  <Repellency>
Inactive

>  <Reference DOI>
10.3390/toxics11100837

>  <Target Organism>
Not applied

$$$$
Compound 515
Actelion Java MolfileCreator 2.0

  0  0  0  0  0  0              0 V3000
M  V30 BEGIN CTAB
M  V30 COUNTS 14 14 0 0 0
M  V30 BEGIN ATOM
M  V30 1 Cl 0.0 0.0 0.0 0
M  V30 2 C 0.0 -1.4998 0.0 0
M  V30 3 C -1.2991 -2.2557 0.0 0
M  V30 4 C 1.2991 -2.2439 0.0 0
M  V30 5 O -2.5982 -1.5116 0.0 0
M  V30 6 C -1.2991 -3.7556 0.0 0
M  V30 7 C 1.2991 -3.7438 0.0 0
M  V30 8 C -3.8973 -2.2675 0.0 0
M  V30 9 C 0.0 -4.4996 0.0 0
M  V30 10 C -5.1964 -1.5235 0.0 0
M  V30 11 O -5.1964 -0.0236 0.0 0
M  V30 12 O -6.4955 -2.2793 0.0 0
M  V30 13 C -7.7946 -1.5353 0.0 0
M  V30 14 C -9.0937 -2.2911 0.0 0
M  V30 END ATOM
M  V30 BEGIN BOND
M  V30 1 1 1 2
M  V30 2 2 2 3
M  V30 3 1 2 4
M  V30 4 1 3 5
M  V30 5 1 3 6
M  V30 6 2 4 7
M  V30 7 1 5 8
M  V30 8 2 6 9
M  V30 9 1 8 10
M  V30 10 2 10 11
M  V30 11 1 10 12
M  V30 12 1 12 13
M  V30 13 1 13 14
M  V30 14 1 7 9
M  V30 END BOND
M  V30 END CTAB
M  END
>  <Molecule Name>
o-Chlorophenoxyacetic acid, ethyl ester

>  <Activity Label>
0

>  <SMILES>
CCOC(COc(cccc1)c1Cl)=O

>  <Molecular Formula>
C10H11O3Cl

>  <InChIKey>
VJGDGQCMUALSPH-UHFFFAOYSA-N

>  <Repellency>
Inactive

>  <Reference DOI>
10.3390/toxics11100837

>  <Target Organism>
Not applied

$$$$
Compound 516
Actelion Java MolfileCreator 2.0

  0  0  0  0  0  0              0 V3000
M  V30 BEGIN CTAB
M  V30 COUNTS 14 14 0 0 0
M  V30 BEGIN ATOM
M  V30 1 Cl 0.0 0.0 0.0 0
M  V30 2 C 0.0 1.5019 0.0 0
M  V30 3 C -1.3009 2.247 0.0 0
M  V30 4 C 1.3009 2.247 0.0 0
M  V30 5 O -2.6018 1.5019 0.0 0
M  V30 6 C -1.3009 3.749 0.0 0
M  V30 7 C 1.3009 3.749 0.0 0
M  V30 8 C -3.9028 2.247 0.0 0
M  V30 9 C 0.0 4.4941 0.0 0
M  V30 10 C 2.6018 4.4941 0.0 0
M  V30 11 O -3.9028 3.749 0.0 0
M  V30 12 O -5.2037 1.5019 0.0 0
M  V30 13 C -6.5047 2.247 0.0 0
M  V30 14 C -7.8056 1.5019 0.0 0
M  V30 END ATOM
M  V30 BEGIN BOND
M  V30 1 1 1 2
M  V30 2 2 2 3
M  V30 3 1 2 4
M  V30 4 1 3 5
M  V30 5 1 3 6
M  V30 6 2 4 7
M  V30 7 1 5 8
M  V30 8 2 6 9
M  V30 9 1 7 10
M  V30 10 2 8 11
M  V30 11 1 8 12
M  V30 12 1 12 13
M  V30 13 1 13 14
M  V30 14 1 7 9
M  V30 END BOND
M  V30 END CTAB
M  END
>  <Molecule Name>
Carbonic acid, 4-methyl-2-chlorophenyl ethyl ester

>  <Activity Label>
0

>  <SMILES>
CCOC(Oc(ccc(C)c1)c1Cl)=O

>  <Molecular Formula>
C10H11O3Cl

>  <InChIKey>
NMBSGAXENQUOFM-UHFFFAOYSA-N

>  <Repellency>
Inactive

>  <Reference DOI>
10.3390/toxics11100837

>  <Target Organism>
Not applied

$$$$
Compound 517
Actelion Java MolfileCreator 2.0

  0  0  0  0  0  0              0 V3000
M  V30 BEGIN CTAB
M  V30 COUNTS 14 14 0 0 0
M  V30 BEGIN ATOM
M  V30 1 O 0.0 0.0 0.0 0
M  V30 2 N -1.2991 -0.744 0.0 0 CHG=1
M  V30 3 O -2.5982 0.0118 0.0 0 CHG=-1
M  V30 4 C -1.2991 -2.2439 0.0 0
M  V30 5 C -2.5982 -2.9879 0.0 0
M  V30 6 C 0.0 -2.9997 0.0 0
M  V30 7 C -3.8973 -2.2439 0.0 0
M  V30 8 C -2.5982 -4.4878 0.0 0
M  V30 9 C 0.0 -4.4996 0.0 0
M  V30 10 O -3.8973 -0.744 0.0 0
M  V30 11 O -5.1964 -2.9997 0.0 0
M  V30 12 C -1.2991 -5.2436 0.0 0
M  V30 13 C -6.4955 -2.2557 0.0 0
M  V30 14 C -7.7946 -3.0115 0.0 0
M  V30 END ATOM
M  V30 BEGIN BOND
M  V30 1 2 1 2
M  V30 2 1 2 3
M  V30 3 1 2 4
M  V30 4 2 4 5
M  V30 5 1 4 6
M  V30 6 1 5 7
M  V30 7 1 5 8
M  V30 8 2 6 9
M  V30 9 2 7 10
M  V30 10 1 7 11
M  V30 11 2 8 12
M  V30 12 1 11 13
M  V30 13 1 13 14
M  V30 14 1 9 12
M  V30 END BOND
M  V30 END CTAB
M  END
>  <Molecule Name>
o-Nitrobenzoic acid, ethyl ester

>  <Activity Label>
0

>  <SMILES>
CCOC(c(cccc1)c1[N+]([O-])=O)=O

>  <Molecular Formula>
C9H9NO4

>  <InChIKey>
CPNMAYYYYSWTIV-UHFFFAOYSA-N

>  <Repellency>
Inactive

>  <Reference DOI>
10.3390/toxics11100837

>  <Target Organism>
Not applied

$$$$
Compound 518
Actelion Java MolfileCreator 2.0

  0  0  0  0  0  0              0 V3000
M  V30 BEGIN CTAB
M  V30 COUNTS 14 14 0 0 0
M  V30 BEGIN ATOM
M  V30 1 O 0.0 0.0 0.0 0
M  V30 2 C 0.0 -1.5001 0.0 0
M  V30 3 O -1.2993 -2.2561 0.0 0
M  V30 4 C 1.2993 -2.2561 0.0 0
M  V30 5 C -2.5986 -1.5119 0.0 0
M  V30 6 N 2.5986 -1.5119 0.0 0
M  V30 7 C -3.898 -2.2679 0.0 0
M  V30 8 C 3.9688 -2.1261 0.0 0
M  V30 9 C 2.7522 -0.0236 0.0 0
M  V30 10 C -5.1973 -1.5237 0.0 0
M  V30 11 C 4.9729 -1.0158 0.0 0
M  V30 12 C 4.2169 0.2834 0.0 0
M  V30 13 C -5.1973 -0.0236 0.0 0
M  V30 14 C -6.4966 -2.2797 0.0 0
M  V30 END ATOM
M  V30 BEGIN BOND
M  V30 1 2 1 2
M  V30 2 1 2 3
M  V30 3 1 2 4
M  V30 4 1 3 5
M  V30 5 1 4 6
M  V30 6 1 5 7
M  V30 7 1 6 8
M  V30 8 1 6 9
M  V30 9 1 7 10
M  V30 10 2 8 11
M  V30 11 2 9 12
M  V30 12 1 10 13
M  V30 13 1 10 14
M  V30 14 1 11 12
M  V30 END BOND
M  V30 END CTAB
M  END
>  <Molecule Name>
1-Pyrrolacetic acid, iso-amyl ester

>  <Activity Label>
0

>  <SMILES>
CC(C)CCOC(C[n]1cccc1)=O

>  <Molecular Formula>
C11H17NO2

>  <InChIKey>
KIJNCVRZDOIRPR-UHFFFAOYSA-N

>  <Repellency>
Inactive

>  <Reference DOI>
10.3390/toxics11100837

>  <Target Organism>
Not applied

$$$$
Compound 519
Actelion Java MolfileCreator 2.0

  0  0  0  0  0  0              0 V3000
M  V30 BEGIN CTAB
M  V30 COUNTS 14 14 0 0 0
M  V30 BEGIN ATOM
M  V30 1 S 0.0 0.0 0.0 0
M  V30 2 O 0.7448 1.3005 0.0 0
M  V30 3 O -0.7448 1.3005 0.0 0
M  V30 4 N 1.3005 -0.7448 0.0 0
M  V30 5 C -1.3005 -0.7448 0.0 0
M  V30 6 C 2.6011 0.0 0.0 0
M  V30 7 C -2.6011 0.0118 0.0 0
M  V30 8 C -1.3005 -2.2464 0.0 0
M  V30 9 C 3.9016 -0.7448 0.0 0
M  V30 10 C -3.9016 -0.733 0.0 0
M  V30 11 C -2.6011 -2.9912 0.0 0
M  V30 12 C 5.2022 0.0 0.0 0
M  V30 13 C -3.9016 -2.2345 0.0 0
M  V30 14 C 6.5027 -0.7448 0.0 0
M  V30 END ATOM
M  V30 BEGIN BOND
M  V30 1 2 1 2
M  V30 2 2 1 3
M  V30 3 1 1 4
M  V30 4 1 1 5
M  V30 5 1 4 6
M  V30 6 2 5 7
M  V30 7 1 5 8
M  V30 8 1 6 9
M  V30 9 1 7 10
M  V30 10 2 8 11
M  V30 11 1 9 12
M  V30 12 2 10 13
M  V30 13 1 12 14
M  V30 14 1 11 13
M  V30 END BOND
M  V30 END CTAB
M  END
>  <Molecule Name>
N-Butylbenzenesulfonamide

>  <Activity Label>
0

>  <SMILES>
CCCCNS(c1ccccc1)(=O)=O

>  <Molecular Formula>
C10H15NO2S

>  <InChIKey>
IPRJXAGUEGOFGG-UHFFFAOYSA-N

>  <Repellency>
Inactive

>  <Reference DOI>
10.3390/toxics11100837

>  <Target Organism>
Not applied

$$$$
Compound 520
Actelion Java MolfileCreator 2.0

  0  0  0  0  0  0              0 V3000
M  V30 BEGIN CTAB
M  V30 COUNTS 14 14 0 0 0
M  V30 BEGIN ATOM
M  V30 1 O 0.0 0.0 0.0 0
M  V30 2 C 0.0 1.5003 0.0 0
M  V30 3 C 1.2994 2.2445 0.0 0
M  V30 4 C -1.2994 2.2445 0.0 0
M  V30 5 C 2.5989 1.5003 0.0 0
M  V30 6 C -2.5989 1.5003 0.0 0
M  V30 7 C -3.8984 2.2563 0.0 0
M  V30 8 C -2.5989 0.0 0.0 0
M  V30 9 N -5.1979 3.0124 0.0 0
M  V30 10 C -3.8984 -0.7442 0.0 0
M  V30 11 C -1.2994 -0.756 0.0 0
M  V30 12 C -3.8984 -2.2445 0.0 0
M  V30 13 C -1.2994 -2.2563 0.0 0
M  V30 14 C -2.5989 -3.0006 0.0 0
M  V30 END ATOM
M  V30 BEGIN BOND
M  V30 1 1 1 2
M  V30 2 1 2 3
M  V30 3 1 2 4
M  V30 4 2 3 5
M  V30 5 1 4 6
M  V30 6 1 6 7
M  V30 7 1 6 8
M  V30 8 3 7 9
M  V30 9 2 8 10
M  V30 10 1 8 11
M  V30 11 1 10 12
M  V30 12 2 11 13
M  V30 13 2 12 14
M  V30 14 1 13 14
M  V30 END BOND
M  V30 END CTAB
M  END
>  <Molecule Name>
2-Phenyl-4-hydroxy-5-hexenonitrile

>  <Activity Label>
0

>  <SMILES>
C=CC(CC(c1ccccc1)C#N)O

>  <Molecular Formula>
C12H13NO

>  <InChIKey>
MJZDSEXQKXQGPB-UHFFFAOYSA-N

>  <Repellency>
Inactive

>  <Reference DOI>
10.3390/toxics11100837

>  <Target Organism>
Not applied

$$$$
Compound 521
Actelion Java MolfileCreator 2.0

  0  0  0  0  0  0              0 V3000
M  V30 BEGIN CTAB
M  V30 COUNTS 14 14 0 0 0
M  V30 BEGIN ATOM
M  V30 1 O 0.0 0.0 0.0 0
M  V30 2 C 0.0 1.5007 0.0 0
M  V30 3 N 1.2998 2.2451 0.0 0
M  V30 4 C -1.2998 2.2451 0.0 0
M  V30 5 C 2.5996 1.5007 0.0 0
M  V30 6 C 1.2998 3.7459 0.0 0
M  V30 7 C -2.5996 1.5007 0.0 0
M  V30 8 C 3.8995 2.2451 0.0 0
M  V30 9 C 0.0 4.5021 0.0 0
M  V30 10 C -3.8995 2.257 0.0 0
M  V30 11 C -2.5996 0.0 0.0 0
M  V30 12 C -5.1993 1.5125 0.0 0
M  V30 13 C -3.8995 -0.7444 0.0 0
M  V30 14 C -5.1993 0.0118 0.0 0
M  V30 END ATOM
M  V30 BEGIN BOND
M  V30 1 2 1 2
M  V30 2 1 2 3
M  V30 3 1 2 4
M  V30 4 1 3 5
M  V30 5 1 3 6
M  V30 6 1 4 7
M  V30 7 1 5 8
M  V30 8 1 6 9
M  V30 9 2 7 10
M  V30 10 1 7 11
M  V30 11 1 10 12
M  V30 12 2 11 13
M  V30 13 2 12 14
M  V30 14 1 13 14
M  V30 END BOND
M  V30 END CTAB
M  END
>  <Molecule Name>
N,N-Diethyl-alpha-toluamide

>  <Activity Label>
0

>  <SMILES>
CCN(CC)C(Cc1ccccc1)=O

>  <Molecular Formula>
C12H17NO

>  <InChIKey>
UXDAWVUDZLBBAM-UHFFFAOYSA-N

>  <Repellency>
Inactive

>  <Reference DOI>
10.3390/toxics11100837

>  <Target Organism>
Not applied

$$$$
Compound 522
Actelion Java MolfileCreator 2.0

  0  0  0  0  0  0              0 V3000
M  V30 BEGIN CTAB
M  V30 COUNTS 14 14 0 0 0
M  V30 BEGIN ATOM
M  V30 1 O 0.0 0.0 0.0 0
M  V30 2 C -1.2989 0.7557 0.0 0
M  V30 3 C -2.5978 0.0118 0.0 0
M  V30 4 C -1.2989 2.2553 0.0 0 CFG=1
M  V30 5 C -3.8967 0.7675 0.0 0
M  V30 6 C -2.5978 -1.4878 0.0 0
M  V30 7 C -2.5978 3.0111 0.0 0
M  V30 8 C 0.0 2.9993 0.0 0
M  V30 9 C -5.1956 0.0236 0.0 0
M  V30 10 C -3.8967 -2.2317 0.0 0
M  V30 11 N -3.8967 3.7668 0.0 0
M  V30 12 C 1.2989 2.2435 0.0 0
M  V30 13 C -5.1956 -1.476 0.0 0
M  V30 14 C 2.5978 2.9875 0.0 0
M  V30 END ATOM
M  V30 BEGIN BOND
M  V30 1 2 1 2
M  V30 2 1 2 3
M  V30 3 1 2 4
M  V30 4 2 3 5
M  V30 5 1 3 6
M  V30 6 1 4 7 CFG=1
M  V30 7 1 4 8
M  V30 8 1 5 9
M  V30 9 2 6 10
M  V30 10 3 7 11
M  V30 11 1 8 12
M  V30 12 2 9 13
M  V30 13 1 12 14
M  V30 14 1 10 13
M  V30 END BOND
M  V30 BEGIN COLLECTION
M  V30 MDLV30/STERAC1 ATOMS=(1 4)
M  V30 END COLLECTION
M  V30 END CTAB
M  END
>  <Molecule Name>
alpha-Benzoylvaleronitrile

>  <Activity Label>
0

>  <SMILES>
CCCC(C(c1ccccc1)=O)C#N

>  <Molecular Formula>
C12H13NO

>  <InChIKey>
CHOBBVMFOFGSBL-UHFFFAOYSA-N

>  <Repellency>
Inactive

>  <Reference DOI>
10.3390/toxics11100837

>  <Target Organism>
Not applied

$$$$
Compound 523
Actelion Java MolfileCreator 2.0

  0  0  0  0  0  0              0 V3000
M  V30 BEGIN CTAB
M  V30 COUNTS 14 14 0 0 0
M  V30 BEGIN ATOM
M  V30 1 O 0.0 0.0 0.0 0
M  V30 2 C -1.2991 0.7558 0.0 0
M  V30 3 C -1.2991 2.2557 0.0 0
M  V30 4 C -2.5982 3.0115 0.0 0
M  V30 5 C 0.0 2.9997 0.0 0
M  V30 6 C -2.5982 4.5114 0.0 0
M  V30 7 C -3.8973 2.2675 0.0 0
M  V30 8 C 0.0 4.4996 0.0 0
M  V30 9 C -1.2991 5.2555 0.0 0
M  V30 10 N -1.2991 6.7553 0.0 0
M  V30 11 C 0.0 7.4994 0.0 0
M  V30 12 C -2.5982 7.4994 0.0 0
M  V30 13 C 1.2991 6.7435 0.0 0
M  V30 14 C -3.8973 6.7435 0.0 0
M  V30 END ATOM
M  V30 BEGIN BOND
M  V30 1 2 1 2
M  V30 2 1 2 3
M  V30 3 2 3 4
M  V30 4 1 3 5
M  V30 5 1 4 6
M  V30 6 1 4 7
M  V30 7 2 5 8
M  V30 8 2 6 9
M  V30 9 1 9 10
M  V30 10 1 10 11
M  V30 11 1 10 12
M  V30 12 1 11 13
M  V30 13 1 12 14
M  V30 14 1 8 9
M  V30 END BOND
M  V30 END CTAB
M  END
>  <Molecule Name>
2-Methyl-4-diethylamino benzaldehyde

>  <Activity Label>
0

>  <SMILES>
CCN(CC)c1cc(C)c(C=O)cc1

>  <Molecular Formula>
C12H17NO

>  <InChIKey>
KCZRCYBAYWJVGD-UHFFFAOYSA-N

>  <Repellency>
Inactive

>  <Reference DOI>
10.3390/toxics11100837

>  <Target Organism>
Not applied

$$$$
Compound 524
Actelion Java MolfileCreator 2.0

  0  0  0  0  0  0              0 V3000
M  V30 BEGIN CTAB
M  V30 COUNTS 14 14 0 0 0
M  V30 BEGIN ATOM
M  V30 1 O 0.0 0.0 0.0 0
M  V30 2 C 1.2992 0.7441 0.0 0
M  V30 3 N 2.5985 -0.0118 0.0 0
M  V30 4 C 1.2992 2.2442 0.0 0
M  V30 5 C 3.8978 0.7323 0.0 0
M  V30 6 C 2.5985 3.0001 0.0 0
M  V30 7 C 0.0 2.9883 0.0 0
M  V30 8 C 5.1971 -0.0236 0.0 0
M  V30 9 O 3.8978 2.2442 0.0 0
M  V30 10 C 2.5985 4.5002 0.0 0
M  V30 11 C 0.0 4.4884 0.0 0
M  V30 12 O 6.4964 0.7205 0.0 0
M  V30 13 C 5.1971 2.9883 0.0 0
M  V30 14 C 1.2992 5.2443 0.0 0
M  V30 END ATOM
M  V30 BEGIN BOND
M  V30 1 2 1 2
M  V30 2 1 2 3
M  V30 3 1 2 4
M  V30 4 1 3 5
M  V30 5 2 4 6
M  V30 6 1 4 7
M  V30 7 1 5 8
M  V30 8 1 6 9
M  V30 9 1 6 10
M  V30 10 2 7 11
M  V30 11 1 8 12
M  V30 12 1 9 13
M  V30 13 2 10 14
M  V30 14 1 11 14
M  V30 END BOND
M  V30 END CTAB
M  END
>  <Molecule Name>
N-(beta-Hydroxyethyl)-o-methoxybenzamide

>  <Activity Label>
0

>  <SMILES>
COc(cccc1)c1C(NCCO)=O

>  <Molecular Formula>
C10H13NO3

>  <InChIKey>
VQCOLYSMGSSZNH-UHFFFAOYSA-N

>  <Repellency>
Inactive

>  <Reference DOI>
10.3390/toxics11100837

>  <Target Organism>
Not applied

$$$$
Compound 525
Actelion Java MolfileCreator 2.0

  0  0  0  0  0  0              0 V3000
M  V30 BEGIN CTAB
M  V30 COUNTS 14 14 0 0 0
M  V30 BEGIN ATOM
M  V30 1 O 0.0 0.0 0.0 0
M  V30 2 C -1.2989 -0.7557 0.0 0
M  V30 3 O -2.5978 -0.0118 0.0 0
M  V30 4 C -3.8967 -0.7675 0.0 0
M  V30 5 C -5.1956 -0.0236 0.0 0
M  V30 6 N -6.4946 -0.7793 0.0 0
M  V30 7 C -6.4946 -2.279 0.0 0
M  V30 8 C -7.7935 -0.0354 0.0 0
M  V30 9 C -7.7935 -3.0229 0.0 0
M  V30 10 C -5.1956 -3.0347 0.0 0
M  V30 11 O -9.0924 -0.7911 0.0 0
M  V30 12 C -7.7935 -4.5226 0.0 0
M  V30 13 C -5.1956 -4.5344 0.0 0
M  V30 14 C -6.4946 -5.2783 0.0 0
M  V30 END ATOM
M  V30 BEGIN BOND
M  V30 1 2 1 2
M  V30 2 1 2 3
M  V30 3 1 3 4
M  V30 4 1 4 5
M  V30 5 1 5 6
M  V30 6 1 6 7
M  V30 7 1 6 8
M  V30 8 2 7 9
M  V30 9 1 7 10
M  V30 10 2 8 11
M  V30 11 1 9 12
M  V30 12 2 10 13
M  V30 13 2 12 14
M  V30 14 1 13 14
M  V30 END BOND
M  V30 END CTAB
M  END
>  <Molecule Name>
N-(2-Formoxyethyl) formanilide

>  <Activity Label>
0

>  <SMILES>
O=CN(CCOC=O)c1ccccc1

>  <Molecular Formula>
C10H11NO3

>  <InChIKey>
NQPCFSHXFXDKLQ-UHFFFAOYSA-N

>  <Repellency>
Inactive

>  <Reference DOI>
10.3390/toxics11100837

>  <Target Organism>
Not applied

$$$$
Compound 526
Actelion Java MolfileCreator 2.0

  0  0  0  0  0  0              0 V3000
M  V30 BEGIN CTAB
M  V30 COUNTS 14 13 0 0 0
M  V30 BEGIN ATOM
M  V30 1 C 0.0 0.0 0.0 0
M  V30 2 C -1.3004 -0.7475 0.0 0
M  V30 3 C 1.3004 -0.7475 0.0 0
M  V30 4 C -2.6009 0.0 0.0 0
M  V30 5 C 2.6009 0.0 0.0 0
M  V30 6 C -3.9014 -0.7475 0.0 0
M  V30 7 C 3.9014 -0.7475 0.0 0
M  V30 8 C -5.2018 0.0 0.0 0
M  V30 9 C 5.2018 0.0 0.0 0
M  V30 10 C -6.5023 -0.7475 0.0 0
M  V30 11 C 6.5023 -0.7475 0.0 0
M  V30 12 C -7.8028 0.0 0.0 0
M  V30 13 C 7.8028 0.0 0.0 0
M  V30 14 C -9.1032 -0.7475 0.0 0
M  V30 END ATOM
M  V30 BEGIN BOND
M  V30 1 1 1 2
M  V30 2 1 1 3
M  V30 3 1 2 4
M  V30 4 1 3 5
M  V30 5 1 4 6
M  V30 6 1 5 7
M  V30 7 1 6 8
M  V30 8 1 7 9
M  V30 9 1 8 10
M  V30 10 1 9 11
M  V30 11 1 10 12
M  V30 12 1 11 13
M  V30 13 1 12 14
M  V30 END BOND
M  V30 END CTAB
M  END
>  <Molecule Name>
n-Tetradecane

>  <Activity Label>
0

>  <SMILES>
CCCCCCCCCCCCCC

>  <Molecular Formula>
C14H30

>  <InChIKey>
BGHCVCJVXZWKCC-UHFFFAOYSA-N

>  <Repellency>
Inactive

>  <Reference DOI>
10.3390/toxics11100837

>  <Target Organism>
Not applied

$$$$
Compound 527
Actelion Java MolfileCreator 2.0

  0  0  0  0  0  0              0 V3000
M  V30 BEGIN CTAB
M  V30 COUNTS 14 13 0 0 0
M  V30 BEGIN ATOM
M  V30 1 C 0.0 0.0 0.0 0
M  V30 2 C 1.3004 0.7475 0.0 0
M  V30 3 C -1.3004 0.7475 0.0 0
M  V30 4 C -2.6009 0.0 0.0 0
M  V30 5 C -3.9014 0.7475 0.0 0
M  V30 6 C -5.2018 0.0 0.0 0
M  V30 7 C -6.5023 0.7475 0.0 0
M  V30 8 C -7.8028 0.0 0.0 0
M  V30 9 C -9.1032 0.7475 0.0 0
M  V30 10 C -10.4037 0.0 0.0 0
M  V30 11 C -11.7042 0.7475 0.0 0
M  V30 12 C -13.0047 0.0 0.0 0
M  V30 13 C -14.3051 0.7475 0.0 0
M  V30 14 C -15.6056 0.0 0.0 0
M  V30 END ATOM
M  V30 BEGIN BOND
M  V30 1 2 1 2
M  V30 2 1 1 3
M  V30 3 1 3 4
M  V30 4 1 4 5
M  V30 5 1 5 6
M  V30 6 1 6 7
M  V30 7 1 7 8
M  V30 8 1 8 9
M  V30 9 1 9 10
M  V30 10 1 10 11
M  V30 11 1 11 12
M  V30 12 1 12 13
M  V30 13 1 13 14
M  V30 END BOND
M  V30 END CTAB
M  END
>  <Molecule Name>
Tetradecene-1

>  <Activity Label>
0

>  <SMILES>
CCCCCCCCCCCCC=C

>  <Molecular Formula>
C14H28

>  <InChIKey>
HFDVRLIODXPAHB-UHFFFAOYSA-N

>  <Repellency>
Inactive

>  <Reference DOI>
10.3390/toxics11100837

>  <Target Organism>
Not applied

$$$$
Compound 528
Actelion Java MolfileCreator 2.0

  0  0  0  0  0  0              0 V3000
M  V30 BEGIN CTAB
M  V30 COUNTS 14 13 0 0 0
M  V30 BEGIN ATOM
M  V30 1 O 0.0 0.0 0.0 0
M  V30 2 C 0.0 -1.4992 0.0 0
M  V30 3 O 1.2985 -2.2547 0.0 0
M  V30 4 C -1.2985 -2.2547 0.0 0
M  V30 5 C 2.597 -1.511 0.0 0
M  V30 6 C -2.597 -1.511 0.0 0
M  V30 7 C -1.2985 -3.7539 0.0 0
M  V30 8 C 3.8955 -2.2665 0.0 0
M  V30 9 O -3.8955 -2.2665 0.0 0
M  V30 10 C -2.597 -0.0118 0.0 0
M  V30 11 C -2.597 -4.5094 0.0 0
M  V30 12 C -5.1941 -1.5228 0.0 0
M  V30 13 O -6.4926 -2.2783 0.0 0
M  V30 14 C -5.1941 -0.0236 0.0 0
M  V30 END ATOM
M  V30 BEGIN BOND
M  V30 1 2 1 2
M  V30 2 1 2 3
M  V30 3 1 2 4
M  V30 4 1 3 5
M  V30 5 1 4 6
M  V30 6 1 4 7
M  V30 7 1 5 8
M  V30 8 1 6 9
M  V30 9 1 6 10
M  V30 10 1 7 11
M  V30 11 1 9 12
M  V30 12 2 12 13
M  V30 13 1 12 14
M  V30 END BOND
M  V30 END CTAB
M  END
>  <Molecule Name>
2-Ethyl-3-acetoxybutyric acid, ethyl ester

>  <Activity Label>
0

>  <SMILES>
CCC(C(C)OC(C)=O)C(OCC)=O

>  <Molecular Formula>
C10H18O4

>  <InChIKey>
ZEMXKKPOCJUVNT-UHFFFAOYSA-N

>  <Repellency>
Inactive

>  <Reference DOI>
10.3390/toxics11100837

>  <Target Organism>
Not applied

$$$$
Compound 529
Actelion Java MolfileCreator 2.0

  0  0  0  0  0  0              0 V3000
M  V30 BEGIN CTAB
M  V30 COUNTS 14 13 0 0 0
M  V30 BEGIN ATOM
M  V30 1 O 0.0 0.0 0.0 0
M  V30 2 C 0.0 1.4998 0.0 0
M  V30 3 O -1.2991 2.2439 0.0 0
M  V30 4 C 1.2991 2.2439 0.0 0
M  V30 5 C -2.5982 1.488 0.0 0 CFG=2
M  V30 6 C 2.5982 1.488 0.0 0
M  V30 7 C -3.8973 2.2321 0.0 0
M  V30 8 C -2.5982 -0.0118 0.0 0
M  V30 9 O -3.8973 3.7319 0.0 0
M  V30 10 O -5.1964 1.4762 0.0 0
M  V30 11 C -6.4955 2.2202 0.0 0
M  V30 12 C -7.7946 1.4644 0.0 0
M  V30 13 C -9.0937 2.2084 0.0 0
M  V30 14 C -10.3928 1.4526 0.0 0
M  V30 END ATOM
M  V30 BEGIN BOND
M  V30 1 2 1 2
M  V30 2 1 2 3
M  V30 3 1 2 4
M  V30 4 1 3 5
M  V30 5 2 4 6
M  V30 6 1 5 7
M  V30 7 1 5 8 CFG=1
M  V30 8 2 7 9
M  V30 9 1 7 10
M  V30 10 1 10 11
M  V30 11 1 11 12
M  V30 12 1 12 13
M  V30 13 1 13 14
M  V30 END BOND
M  V30 BEGIN COLLECTION
M  V30 MDLV30/STERAC1 ATOMS=(1 5)
M  V30 END COLLECTION
M  V30 END CTAB
M  END
>  <Molecule Name>
alpha-Acryloxypropionic acid, butyl ester

>  <Activity Label>
0

>  <SMILES>
CCCCOC(C(C)OC(C=C)=O)=O

>  <Molecular Formula>
C10H16O4

>  <InChIKey>
GMYMGDPDQSRQKW-UHFFFAOYSA-N

>  <Repellency>
Inactive

>  <Reference DOI>
10.3390/toxics11100837

>  <Target Organism>
Not applied

$$$$
Compound 530
Actelion Java MolfileCreator 2.0

  0  0  0  0  0  0              0 V3000
M  V30 BEGIN CTAB
M  V30 COUNTS 14 13 0 0 0
M  V30 BEGIN ATOM
M  V30 1 O 0.0 0.0 0.0 0
M  V30 2 C 0.0 1.4999 0.0 0
M  V30 3 O -1.2991 2.2439 0.0 0
M  V30 4 C 1.2991 2.2439 0.0 0
M  V30 5 C -2.5982 1.488 0.0 0 CFG=2
M  V30 6 C 2.5982 1.488 0.0 0
M  V30 7 C 1.2991 3.7438 0.0 0
M  V30 8 C -3.8973 2.2321 0.0 0
M  V30 9 C -2.5982 -0.0118 0.0 0
M  V30 10 O -3.8973 3.732 0.0 0
M  V30 11 O -5.1965 1.4762 0.0 0
M  V30 12 C -6.4956 2.2203 0.0 0
M  V30 13 C -6.4956 3.7202 0.0 0
M  V30 14 C -7.7947 1.4644 0.0 0
M  V30 END ATOM
M  V30 BEGIN BOND
M  V30 1 2 1 2
M  V30 2 1 2 3
M  V30 3 1 2 4
M  V30 4 1 3 5
M  V30 5 2 4 6
M  V30 6 1 4 7
M  V30 7 1 5 8
M  V30 8 1 5 9 CFG=1
M  V30 9 2 8 10
M  V30 10 1 8 11
M  V30 11 1 11 12
M  V30 12 1 12 13
M  V30 13 1 12 14
M  V30 END BOND
M  V30 BEGIN COLLECTION
M  V30 MDLV30/STERAC1 ATOMS=(1 5)
M  V30 END COLLECTION
M  V30 END CTAB
M  END
>  <Molecule Name>
alpha-Methacryloxypropionic acid, iso-propyl ester

>  <Activity Label>
0

>  <SMILES>
CC(C)OC(C(C)OC(C(C)=C)=O)=O

>  <Molecular Formula>
C10H16O4

>  <InChIKey>
YVBCFJUDXNRROF-UHFFFAOYSA-N

>  <Repellency>
Inactive

>  <Reference DOI>
10.3390/toxics11100837

>  <Target Organism>
Not applied

$$$$
Compound 531
Actelion Java MolfileCreator 2.0

  0  0  0  0  0  0              0 V3000
M  V30 BEGIN CTAB
M  V30 COUNTS 14 13 0 0 0
M  V30 BEGIN ATOM
M  V30 1 O 0.0 0.0 0.0 0
M  V30 2 C 0.0 1.4994 0.0 0
M  V30 3 O -1.2987 2.2432 0.0 0
M  V30 4 C 1.2987 2.2432 0.0 0 CFG=1
M  V30 5 C -2.5974 1.4876 0.0 0
M  V30 6 O 2.5974 1.4876 0.0 0
M  V30 7 C 1.2987 3.7426 0.0 0
M  V30 8 C -3.8961 2.2314 0.0 0
M  V30 9 C -3.353 0.1889 0.0 0
M  V30 10 C -1.8418 0.1889 0.0 0
M  V30 11 C 3.8961 2.2314 0.0 0
M  V30 12 C -5.1948 1.4758 0.0 0
M  V30 13 O 3.8961 3.7308 0.0 0
M  V30 14 C 5.1948 1.4758 0.0 0
M  V30 END ATOM
M  V30 BEGIN BOND
M  V30 1 2 1 2
M  V30 2 1 2 3
M  V30 3 1 2 4
M  V30 4 1 3 5
M  V30 5 1 4 6
M  V30 6 1 4 7 CFG=3
M  V30 7 1 5 8
M  V30 8 1 5 9
M  V30 9 1 5 10
M  V30 10 1 6 11
M  V30 11 1 8 12
M  V30 12 2 11 13
M  V30 13 1 11 14
M  V30 END BOND
M  V30 BEGIN COLLECTION
M  V30 MDLV30/STERAC1 ATOMS=(1 4)
M  V30 END COLLECTION
M  V30 END CTAB
M  END
>  <Molecule Name>
alpha-Acetoxypropionic acid, tert-amyl ester

>  <Activity Label>
0

>  <SMILES>
CCC(C)(C)OC(C(C)OC(C)=O)=O

>  <Molecular Formula>
C10H18O4

>  <InChIKey>
UTDKJKOQDPOCAI-UHFFFAOYSA-N

>  <Repellency>
Inactive

>  <Reference DOI>
10.3390/toxics11100837

>  <Target Organism>
Not applied

$$$$
Compound 532
Actelion Java MolfileCreator 2.0

  0  0  0  0  0  0              0 V3000
M  V30 BEGIN CTAB
M  V30 COUNTS 14 13 0 0 0
M  V30 BEGIN ATOM
M  V30 1 O 0.0 0.0 0.0 0
M  V30 2 C 0.0 -1.4994 0.0 0
M  V30 3 O -1.2987 -2.255 0.0 0
M  V30 4 C 1.2987 -2.255 0.0 0 CFG=1
M  V30 5 C -2.5974 -1.5112 0.0 0
M  V30 6 O 2.5974 -1.5112 0.0 0
M  V30 7 C 1.2987 -3.7544 0.0 0
M  V30 8 C -3.8961 -2.2668 0.0 0
M  V30 9 C 3.8961 -2.2668 0.0 0
M  V30 10 C -5.1948 -1.523 0.0 0
M  V30 11 O 3.8961 -3.7662 0.0 0
M  V30 12 C 5.1948 -1.523 0.0 0
M  V30 13 C -6.4935 -2.2786 0.0 0
M  V30 14 C 6.4935 -2.2786 0.0 0
M  V30 END ATOM
M  V30 BEGIN BOND
M  V30 1 2 1 2
M  V30 2 1 2 3
M  V30 3 1 2 4
M  V30 4 1 3 5
M  V30 5 1 4 6
M  V30 6 1 4 7 CFG=1
M  V30 7 1 5 8
M  V30 8 1 6 9
M  V30 9 1 8 10
M  V30 10 2 9 11
M  V30 11 1 9 12
M  V30 12 1 10 13
M  V30 13 1 12 14
M  V30 END BOND
M  V30 BEGIN COLLECTION
M  V30 MDLV30/STERAC1 ATOMS=(1 4)
M  V30 END COLLECTION
M  V30 END CTAB
M  END
>  <Molecule Name>
alpha-Propionoxypropionic acid, n-butyl ester

>  <Activity Label>
0

>  <SMILES>
CCCCOC(C(C)OC(CC)=O)=O

>  <Molecular Formula>
C10H18O4

>  <InChIKey>
UIZUHICKPZJWOH-UHFFFAOYSA-N

>  <Repellency>
Inactive

>  <Reference DOI>
10.3390/toxics11100837

>  <Target Organism>
Not applied

$$$$
Compound 533
Actelion Java MolfileCreator 2.0

  0  0  0  0  0  0              0 V3000
M  V30 BEGIN CTAB
M  V30 COUNTS 14 13 0 0 0
M  V30 BEGIN ATOM
M  V30 1 O 0.0 0.0 0.0 0
M  V30 2 C 0.0 -1.4996 0.0 0
M  V30 3 O 1.2989 -2.2553 0.0 0
M  V30 4 C -1.2989 -2.2553 0.0 0
M  V30 5 C 2.5978 -1.5114 0.0 0
M  V30 6 O -1.2989 -3.755 0.0 0
M  V30 7 O -2.5978 -1.5114 0.0 0
M  V30 8 C 3.8967 -2.2672 0.0 0
M  V30 9 C -3.8967 -2.2672 0.0 0
M  V30 10 C 5.1956 -1.5232 0.0 0
M  V30 11 C 3.8967 -3.7668 0.0 0
M  V30 12 C -5.1956 -1.5232 0.0 0
M  V30 13 C -5.1956 -0.0236 0.0 0
M  V30 14 C -6.4946 -2.279 0.0 0
M  V30 END ATOM
M  V30 BEGIN BOND
M  V30 1 2 1 2
M  V30 2 1 2 3
M  V30 3 1 2 4
M  V30 4 1 3 5
M  V30 5 2 4 6
M  V30 6 1 4 7
M  V30 7 1 5 8
M  V30 8 1 7 9
M  V30 9 1 8 10
M  V30 10 1 8 11
M  V30 11 1 9 12
M  V30 12 1 12 13
M  V30 13 1 12 14
M  V30 END BOND
M  V30 END CTAB
M  END
>  <Molecule Name>
Oxalic acid, di-iso-butyl ester

>  <Activity Label>
0

>  <SMILES>
CC(C)COC(C(OCC(C)C)=O)=O

>  <Molecular Formula>
C10H18O4

>  <InChIKey>
GJRRTUSXQPXVES-UHFFFAOYSA-N

>  <Repellency>
Inactive

>  <Reference DOI>
10.3390/toxics11100837

>  <Target Organism>
Not applied

$$$$
Compound 534
Actelion Java MolfileCreator 2.0

  0  0  0  0  0  0              0 V3000
M  V30 BEGIN CTAB
M  V30 COUNTS 14 13 0 0 0
M  V30 BEGIN ATOM
M  V30 1 O 0.0 0.0 0.0 0
M  V30 2 C 0.0 -1.4996 0.0 0
M  V30 3 C 1.2989 0.7557 0.0 0
M  V30 4 O 0.0 -2.9993 0.0 0
M  V30 5 O -1.2989 -2.2553 0.0 0
M  V30 6 C 1.2989 -2.2553 0.0 0
M  V30 7 C 1.2989 2.2553 0.0 0
M  V30 8 C -1.2989 -3.7432 0.0 0
M  V30 9 C -2.5978 -1.5114 0.0 0
M  V30 10 O 2.5978 -1.5114 0.0 0
M  V30 11 C -1.2989 -5.2429 0.0 0
M  V30 12 C -3.8967 -2.2672 0.0 0
M  V30 13 C 3.8967 -2.2672 0.0 0
M  V30 14 C 5.1956 -1.5232 0.0 0
M  V30 END ATOM
M  V30 BEGIN BOND
M  V30 1 1 1 2
M  V30 2 1 1 3
M  V30 3 1 2 4
M  V30 4 1 2 5
M  V30 5 1 2 6
M  V30 6 1 3 7
M  V30 7 1 4 8
M  V30 8 1 5 9
M  V30 9 1 6 10
M  V30 10 1 8 11
M  V30 11 1 9 12
M  V30 12 1 10 13
M  V30 13 1 13 14
M  V30 END BOND
M  V30 END CTAB
M  END
>  <Molecule Name>
Ethoxyorthoacetic acid, tri-ethyl ester

>  <Activity Label>
0

>  <SMILES>
CCOCC(OCC)(OCC)OCC

>  <Molecular Formula>
C10H22O4

>  <InChIKey>
QSVIFMIHOCWOPL-UHFFFAOYSA-N

>  <Repellency>
Inactive

>  <Reference DOI>
10.3390/toxics11100837

>  <Target Organism>
Not applied

$$$$
Compound 535
Actelion Java MolfileCreator 2.0

  0  0  0  0  0  0              0 V3000
M  V30 BEGIN CTAB
M  V30 COUNTS 14 13 0 0 0
M  V30 BEGIN ATOM
M  V30 1 P 0.0 0.0 0.0 0
M  V30 2 O 0.0 1.5012 0.0 0
M  V30 3 O 1.3002 0.7447 0.0 0
M  V30 4 O 0.0 -1.5012 0.0 0
M  V30 5 O -1.3002 0.7447 0.0 0
M  V30 6 C 2.6005 0.0 0.0 0
M  V30 7 C -1.3002 -2.2577 0.0 0
M  V30 8 C -2.6005 0.0 0.0 0
M  V30 9 C 3.9008 0.7447 0.0 0
M  V30 10 C -1.3002 -3.759 0.0 0
M  V30 11 C -3.9008 0.7447 0.0 0
M  V30 12 C 5.2011 0.0 0.0 0
M  V30 13 C -2.6005 -4.5155 0.0 0
M  V30 14 C -5.2011 0.0 0.0 0
M  V30 END ATOM
M  V30 BEGIN BOND
M  V30 1 2 1 2
M  V30 2 1 1 3
M  V30 3 1 1 4
M  V30 4 1 1 5
M  V30 5 1 3 6
M  V30 6 1 4 7
M  V30 7 1 5 8
M  V30 8 1 6 9
M  V30 9 1 7 10
M  V30 10 1 8 11
M  V30 11 1 9 12
M  V30 12 1 10 13
M  V30 13 1 11 14
M  V30 END BOND
M  V30 END CTAB
M  END
>  <Molecule Name>
Phosphoric acid tripropyl ester

>  <Activity Label>
0

>  <SMILES>
CCCOP(OCCC)(OCCC)=O

>  <Molecular Formula>
C9H21O4P

>  <InChIKey>
RXPQRKFMDQNODS-UHFFFAOYSA-N

>  <Repellency>
Inactive

>  <Reference DOI>
10.3390/toxics11100837

>  <Target Organism>
Not applied

$$$$
Compound 536
Actelion Java MolfileCreator 2.0

  0  0  0  0  0  0              0 V3000
M  V30 BEGIN CTAB
M  V30 COUNTS 14 13 0 0 0
M  V30 BEGIN ATOM
M  V30 1 O 0.0 0.0 0.0 0
M  V30 2 C 0.0 1.4998 0.0 0 CFG=2
M  V30 3 C -1.299 2.2438 0.0 0
M  V30 4 C 1.299 2.2438 0.0 0
M  V30 5 O -2.5981 1.488 0.0 0
M  V30 6 C 2.5981 1.488 0.0 0
M  V30 7 C 3.8972 2.232 0.0 0
M  V30 8 C 5.1963 1.4762 0.0 0
M  V30 9 C 6.4954 2.2202 0.0 0
M  V30 10 C 7.7945 1.4644 0.0 0
M  V30 11 C 9.0935 2.2084 0.0 0
M  V30 12 C 10.3926 1.4526 0.0 0
M  V30 13 C 11.6917 2.1966 0.0 0
M  V30 14 C 12.9908 1.4408 0.0 0
M  V30 END ATOM
M  V30 BEGIN BOND
M  V30 1 1 2 1 CFG=3
M  V30 2 1 2 3
M  V30 3 1 2 4
M  V30 4 1 3 5
M  V30 5 1 4 6
M  V30 6 1 6 7
M  V30 7 1 7 8
M  V30 8 1 8 9
M  V30 9 1 9 10
M  V30 10 1 10 11
M  V30 11 1 11 12
M  V30 12 1 12 13
M  V30 13 1 13 14
M  V30 END BOND
M  V30 BEGIN COLLECTION
M  V30 MDLV30/STERAC1 ATOMS=(1 2)
M  V30 END COLLECTION
M  V30 END CTAB
M  END
>  <Molecule Name>
1,2-Dodecanediol

>  <Activity Label>
0

>  <SMILES>
CCCCCCCCCCC(CO)O

>  <Molecular Formula>
C12H26O2

>  <InChIKey>
ZITKDVFRMRXIJQ-UHFFFAOYSA-N

>  <Repellency>
Inactive

>  <Reference DOI>
10.3390/toxics11100837

>  <Target Organism>
Not applied

$$$$
Compound 537
Actelion Java MolfileCreator 2.0

  0  0  0  0  0  0              0 V3000
M  V30 BEGIN CTAB
M  V30 COUNTS 14 13 0 0 0
M  V30 BEGIN ATOM
M  V30 1 O 0.0 0.0 0.0 0
M  V30 2 C 0.0 1.4989 0.0 0
M  V30 3 O 1.2982 2.2425 0.0 0
M  V30 4 C -1.2982 2.2543 0.0 0
M  V30 5 C 2.5965 1.4871 0.0 0
M  V30 6 C -2.5965 3.0096 0.0 0
M  V30 7 C 3.8948 2.2307 0.0 0
M  V30 8 C -3.8948 3.765 0.0 0
M  V30 9 C 5.1931 1.4753 0.0 0
M  V30 10 C -5.1931 3.0214 0.0 0
M  V30 11 C 6.4914 2.2189 0.0 0
M  V30 12 C -6.4914 3.7768 0.0 0
M  V30 13 C 7.7897 1.4635 0.0 0
M  V30 14 C -7.7897 3.0214 0.0 0
M  V30 END ATOM
M  V30 BEGIN BOND
M  V30 1 2 1 2
M  V30 2 1 2 3
M  V30 3 1 2 4
M  V30 4 1 3 5
M  V30 5 3 4 6
M  V30 6 1 5 7
M  V30 7 1 6 8
M  V30 8 1 7 9
M  V30 9 1 8 10
M  V30 10 1 9 11
M  V30 11 1 10 12
M  V30 12 1 11 13
M  V30 13 1 12 14
M  V30 END BOND
M  V30 END CTAB
M  END
>  <Molecule Name>
2-Heptynoic acid, n-amyl ester

>  <Activity Label>
0

>  <SMILES>
CCCCCOC(C#CCCCC)=O

>  <Molecular Formula>
C12H20O2

>  <InChIKey>
YKSQVHRAXYKFIK-UHFFFAOYSA-N

>  <Repellency>
Inactive

>  <Reference DOI>
10.3390/toxics11100837

>  <Target Organism>
Not applied

$$$$
Compound 538
Actelion Java MolfileCreator 2.0

  0  0  0  0  0  0              0 V3000
M  V30 BEGIN CTAB
M  V30 COUNTS 14 13 0 0 0
M  V30 BEGIN ATOM
M  V30 1 O 0.0 0.0 0.0 0
M  V30 2 C 0.0 1.4973 0.0 0
M  V30 3 O -1.2969 2.2519 0.0 0
M  V30 4 C 1.2969 2.2519 0.0 0
M  V30 5 C -2.5938 1.4973 0.0 0
M  V30 6 C 2.5938 1.4973 0.0 0
M  V30 7 C -3.8908 2.2519 0.0 0
M  V30 8 C 3.8908 2.2519 0.0 0
M  V30 9 C -5.1877 1.4973 0.0 0
M  V30 10 C 5.1877 1.4973 0.0 0
M  V30 11 C -6.4846 2.2519 0.0 0
M  V30 12 C 6.4846 2.2519 0.0 0
M  V30 13 C 5.1877 0.0 0.0 0
M  V30 14 C -7.7816 1.4973 0.0 0
M  V30 END ATOM
M  V30 BEGIN BOND
M  V30 1 2 1 2
M  V30 2 1 2 3
M  V30 3 1 2 4
M  V30 4 1 3 5
M  V30 5 1 4 6
M  V30 6 1 5 7
M  V30 7 1 6 8
M  V30 8 1 7 9
M  V30 9 1 8 10
M  V30 10 1 9 11
M  V30 11 1 10 12
M  V30 12 1 10 13
M  V30 13 1 11 14
M  V30 END BOND
M  V30 END CTAB
M  END
>  <Molecule Name>
2-(iso-Amyl)acetic acid, n-amyl ester

>  <Activity Label>
0

>  <SMILES>
CCCCCOC(CCCC(C)C)=O

>  <Molecular Formula>
C12H24O2

>  <InChIKey>
LCRMCDAWSCNDOP-UHFFFAOYSA-N

>  <Repellency>
Inactive

>  <Reference DOI>
10.3390/toxics11100837

>  <Target Organism>
Not applied

$$$$
Compound 539
Actelion Java MolfileCreator 2.0

  0  0  0  0  0  0              0 V3000
M  V30 BEGIN CTAB
M  V30 COUNTS 14 13 0 0 0
M  V30 BEGIN ATOM
M  V30 1 O 0.0 0.0 0.0 0
M  V30 2 C 0.0 -1.4993 0.0 0
M  V30 3 O -1.2986 -2.255 0.0 0
M  V30 4 C 1.2986 -2.255 0.0 0
M  V30 5 C -2.5973 -1.5112 0.0 0
M  V30 6 C 2.5973 -1.5112 0.0 0
M  V30 7 C -3.896 -2.2668 0.0 0
M  V30 8 C 3.896 -2.2668 0.0 0
M  V30 9 C 5.1947 -1.523 0.0 0
M  V30 10 C 6.4934 -2.2786 0.0 0
M  V30 11 C 7.7921 -1.5348 0.0 0
M  V30 12 C 9.0908 -2.2904 0.0 0
M  V30 13 C 10.3895 -1.5466 0.0 0
M  V30 14 C 11.6882 -2.3022 0.0 0
M  V30 END ATOM
M  V30 BEGIN BOND
M  V30 1 2 1 2
M  V30 2 1 2 3
M  V30 3 1 2 4
M  V30 4 1 3 5
M  V30 5 1 4 6
M  V30 6 1 5 7
M  V30 7 1 6 8
M  V30 8 1 8 9
M  V30 9 1 9 10
M  V30 10 1 10 11
M  V30 11 1 11 12
M  V30 12 1 12 13
M  V30 13 1 13 14
M  V30 END BOND
M  V30 END CTAB
M  END
>  <Molecule Name>
Capric acid, ethyl ester

>  <Activity Label>
0

>  <SMILES>
CCCCCCCCCC(OCC)=O

>  <Molecular Formula>
C12H24O2

>  <InChIKey>
RGXWDWUGBIJHDO-UHFFFAOYSA-N

>  <Repellency>
Inactive

>  <Reference DOI>
10.3390/toxics11100837

>  <Target Organism>
Not applied

$$$$
Compound 540
Actelion Java MolfileCreator 2.0

  0  0  0  0  0  0              0 V3000
M  V30 BEGIN CTAB
M  V30 COUNTS 14 13 0 0 0
M  V30 BEGIN ATOM
M  V30 1 O 0.0 0.0 0.0 0
M  V30 2 C 0.0 -1.4991 0.0 0
M  V30 3 O 1.2985 -2.2546 0.0 0
M  V30 4 C -1.2985 -2.2546 0.0 0 CFG=2
M  V30 5 C 2.597 -1.5109 0.0 0
M  V30 6 C -2.597 -1.5109 0.0 0
M  V30 7 C -1.2985 -3.7538 0.0 0
M  V30 8 C 3.8955 -2.2664 0.0 0
M  V30 9 C -3.8955 -2.2664 0.0 0
M  V30 10 C -2.597 -4.5093 0.0 0
M  V30 11 C 5.194 -1.5227 0.0 0
M  V30 12 C -5.194 -1.5227 0.0 0
M  V30 13 C 6.4925 -2.2782 0.0 0
M  V30 14 C -6.4925 -2.2782 0.0 0
M  V30 END ATOM
M  V30 BEGIN BOND
M  V30 1 2 1 2
M  V30 2 1 2 3
M  V30 3 1 2 4
M  V30 4 1 3 5
M  V30 5 1 4 6 CFG=1
M  V30 6 1 4 7
M  V30 7 1 5 8
M  V30 8 1 6 9
M  V30 9 1 7 10
M  V30 10 1 8 11
M  V30 11 1 9 12
M  V30 12 1 11 13
M  V30 13 1 12 14
M  V30 END BOND
M  V30 BEGIN COLLECTION
M  V30 MDLV30/STERAC1 ATOMS=(1 4)
M  V30 END COLLECTION
M  V30 END CTAB
M  END
>  <Molecule Name>
2-Ethylhexanoic acid, butyl ester

>  <Activity Label>
0

>  <SMILES>
CCCCC(CC)C(OCCCC)=O

>  <Molecular Formula>
C12H24O2

>  <InChIKey>
USPADFUBVAGYOJ-UHFFFAOYSA-N

>  <Repellency>
Inactive

>  <Reference DOI>
10.3390/toxics11100837

>  <Target Organism>
Not applied

$$$$
Compound 541
Actelion Java MolfileCreator 2.0

  0  0  0  0  0  0              0 V3000
M  V30 BEGIN CTAB
M  V30 COUNTS 14 13 0 0 0
M  V30 BEGIN ATOM
M  V30 1 O 0.0 0.0 0.0 0
M  V30 2 C 0.0 -1.5025 0.0 0
M  V30 3 O -1.3014 -2.2479 0.0 0
M  V30 4 C 1.3014 -2.2479 0.0 0
M  V30 5 C -2.6028 -1.5025 0.0 0
M  V30 6 C -3.9043 -2.2479 0.0 0
M  V30 7 C -5.2057 -1.5025 0.0 0
M  V30 8 C -6.5072 -2.2479 0.0 0
M  V30 9 C -7.8086 -1.5025 0.0 0
M  V30 10 C -9.1101 -2.2479 0.0 0
M  V30 11 C -10.4115 -1.5025 0.0 0
M  V30 12 C -11.713 -2.2479 0.0 0
M  V30 13 C -13.0144 -1.5025 0.0 0
M  V30 14 C -14.3159 -2.2479 0.0 0
M  V30 END ATOM
M  V30 BEGIN BOND
M  V30 1 2 1 2
M  V30 2 1 2 3
M  V30 3 1 2 4
M  V30 4 1 3 5
M  V30 5 1 5 6
M  V30 6 1 6 7
M  V30 7 1 7 8
M  V30 8 1 8 9
M  V30 9 1 9 10
M  V30 10 1 10 11
M  V30 11 1 11 12
M  V30 12 1 12 13
M  V30 13 1 13 14
M  V30 END BOND
M  V30 END CTAB
M  END
>  <Molecule Name>
Acetic acid, decyl ester

>  <Activity Label>
0

>  <SMILES>
CCCCCCCCCCOC(C)=O

>  <Molecular Formula>
C12H24O2

>  <InChIKey>
NUPSHWCALHZGOV-UHFFFAOYSA-N

>  <Repellency>
Inactive

>  <Reference DOI>
10.3390/toxics11100837

>  <Target Organism>
Not applied

$$$$
Compound 542
Actelion Java MolfileCreator 2.0

  0  0  0  0  0  0              0 V3000
M  V30 BEGIN CTAB
M  V30 COUNTS 14 13 0 0 0
M  V30 BEGIN ATOM
M  V30 1 O 0.0 0.0 0.0 0
M  V30 2 C 0.0 -1.4994 0.0 0
M  V30 3 O -1.2987 -2.255 0.0 0
M  V30 4 C 1.2987 -2.255 0.0 0
M  V30 5 C -2.5974 -1.5112 0.0 0
M  V30 6 C -3.8961 -2.2668 0.0 0
M  V30 7 C -5.1948 -1.523 0.0 0 CFG=2
M  V30 8 C -6.4935 -2.2786 0.0 0
M  V30 9 C -5.1948 -0.0236 0.0 0
M  V30 10 C -7.7922 -1.5348 0.0 0
M  V30 11 C -9.0909 -2.2904 0.0 0
M  V30 12 C -10.3897 -1.5466 0.0 0
M  V30 13 C -11.6884 -2.3022 0.0 0
M  V30 14 C -10.3897 -0.0472 0.0 0
M  V30 END ATOM
M  V30 BEGIN BOND
M  V30 1 2 1 2
M  V30 2 1 2 3
M  V30 3 1 2 4
M  V30 4 1 3 5
M  V30 5 1 5 6
M  V30 6 1 6 7
M  V30 7 1 7 8
M  V30 8 1 7 9 CFG=3
M  V30 9 1 8 10
M  V30 10 1 10 11
M  V30 11 2 11 12
M  V30 12 1 12 13
M  V30 13 1 12 14
M  V30 END BOND
M  V30 BEGIN COLLECTION
M  V30 MDLV30/STERAC1 ATOMS=(1 7)
M  V30 END COLLECTION
M  V30 END CTAB
M  END
>  <Molecule Name>
Acetic acid, citronellyl ester

>  <Activity Label>
0

>  <SMILES>
CC(CCC=C(C)C)CCOC(C)=O

>  <Molecular Formula>
C12H22O2

>  <InChIKey>
JOZKFWLRHCDGJA-UHFFFAOYSA-N

>  <Repellency>
Inactive

>  <Reference DOI>
10.3390/toxics11100837

>  <Target Organism>
Not applied

$$$$
Compound 543
Actelion Java MolfileCreator 2.0

  0  0  0  0  0  0              0 V3000
M  V30 BEGIN CTAB
M  V30 COUNTS 14 13 0 0 0
M  V30 BEGIN ATOM
M  V30 1 O 0.0 0.0 0.0 0
M  V30 2 C -1.2991 0.744 0.0 0
M  V30 3 O -1.2991 2.2439 0.0 0
M  V30 4 C -2.5982 -0.0118 0.0 0
M  V30 5 C -3.8973 0.7322 0.0 0
M  V30 6 C -5.1964 -0.0236 0.0 0
M  V30 7 C -6.4955 0.7204 0.0 0 CFG=2
M  V30 8 C -7.7946 -0.0354 0.0 0
M  V30 9 C -6.4955 2.2202 0.0 0
M  V30 10 C -9.0937 0.7086 0.0 0
M  V30 11 C -10.3928 -0.0472 0.0 0
M  V30 12 C -11.6919 0.6967 0.0 0
M  V30 13 C -11.6919 2.1966 0.0 0
M  V30 14 C -12.991 -0.059 0.0 0
M  V30 END ATOM
M  V30 BEGIN BOND
M  V30 1 2 1 2
M  V30 2 1 2 3
M  V30 3 1 2 4
M  V30 4 1 4 5
M  V30 5 1 5 6
M  V30 6 1 6 7
M  V30 7 1 7 8
M  V30 8 1 7 9 CFG=3
M  V30 9 1 8 10
M  V30 10 1 10 11
M  V30 11 1 11 12
M  V30 12 1 12 13
M  V30 13 1 12 14
M  V30 END BOND
M  V30 BEGIN COLLECTION
M  V30 MDLV30/STERAC1 ATOMS=(1 7)
M  V30 END COLLECTION
M  V30 END CTAB
M  END
>  <Molecule Name>
5,9-Dimethyldecanoic acid

>  <Activity Label>
0

>  <SMILES>
CC(C)CCCC(C)CCCC(O)=O

>  <Molecular Formula>
C12H24O2

>  <InChIKey>
ICYLGMMNRKAUJS-UHFFFAOYSA-N

>  <Repellency>
Inactive

>  <Reference DOI>
10.3390/toxics11100837

>  <Target Organism>
Not applied

$$$$
Compound 544
Actelion Java MolfileCreator 2.0

  0  0  0  0  0  0              0 V3000
M  V30 BEGIN CTAB
M  V30 COUNTS 14 13 0 0 0
M  V30 BEGIN ATOM
M  V30 1 O 0.0 0.0 0.0 0
M  V30 2 C -1.2986 -0.7437 0.0 0
M  V30 3 O -2.5973 0.0118 0.0 0
M  V30 4 C -1.2986 -2.2431 0.0 0
M  V30 5 C 0.0 -2.9987 0.0 0
M  V30 6 C -2.5973 -2.9987 0.0 0
M  V30 7 C 1.2986 -2.255 0.0 0
M  V30 8 C -3.896 -2.255 0.0 0
M  V30 9 C 2.5973 -3.0106 0.0 0
M  V30 10 C -5.1947 -3.0106 0.0 0
M  V30 11 C 3.896 -2.2668 0.0 0
M  V30 12 C -6.4934 -2.2668 0.0 0
M  V30 13 C 5.1947 -3.0224 0.0 0
M  V30 14 C -7.7921 -3.0224 0.0 0
M  V30 END ATOM
M  V30 BEGIN BOND
M  V30 1 2 1 2
M  V30 2 1 2 3
M  V30 3 1 2 4
M  V30 4 1 4 5
M  V30 5 1 4 6
M  V30 6 1 5 7
M  V30 7 1 6 8
M  V30 8 1 7 9
M  V30 9 1 8 10
M  V30 10 1 9 11
M  V30 11 1 10 12
M  V30 12 1 11 13
M  V30 13 1 12 14
M  V30 END BOND
M  V30 END CTAB
M  END
>  <Molecule Name>
Di-n-amylacetic acid

>  <Activity Label>
0

>  <SMILES>
CCCCCC(CCCCC)C(O)=O

>  <Molecular Formula>
C12H24O2

>  <InChIKey>
PLVOWOHSFJLXOR-UHFFFAOYSA-N

>  <Repellency>
Inactive

>  <Reference DOI>
10.3390/toxics11100837

>  <Target Organism>
Not applied

$$$$
Compound 545
Actelion Java MolfileCreator 2.0

  0  0  0  0  0  0              0 V3000
M  V30 BEGIN CTAB
M  V30 COUNTS 14 13 0 0 0
M  V30 BEGIN ATOM
M  V30 1 O 0.0 0.0 0.0 0
M  V30 2 C 0.0 1.4991 0.0 0
M  V30 3 O 1.2985 2.2428 0.0 0
M  V30 4 C -1.2985 2.2546 0.0 0
M  V30 5 C 2.597 1.4873 0.0 0
M  V30 6 C -2.597 3.0101 0.0 0
M  V30 7 C 3.8955 2.231 0.0 0
M  V30 8 C -3.8955 3.7656 0.0 0
M  V30 9 C 5.194 1.4755 0.0 0
M  V30 10 C -5.194 3.0219 0.0 0
M  V30 11 C 6.4925 2.2192 0.0 0
M  V30 12 C 5.194 -0.0236 0.0 0
M  V30 13 C -6.4925 3.7774 0.0 0
M  V30 14 C -7.791 3.0219 0.0 0
M  V30 END ATOM
M  V30 BEGIN BOND
M  V30 1 2 1 2
M  V30 2 1 2 3
M  V30 3 1 2 4
M  V30 4 1 3 5
M  V30 5 3 4 6
M  V30 6 1 5 7
M  V30 7 1 6 8
M  V30 8 1 7 9
M  V30 9 1 8 10
M  V30 10 1 9 11
M  V30 11 1 9 12
M  V30 12 1 10 13
M  V30 13 1 13 14
M  V30 END BOND
M  V30 END CTAB
M  END
>  <Molecule Name>
2-Heptynoic acid, iso-amyl ester

>  <Activity Label>
0

>  <SMILES>
CCCCC#CC(OCCC(C)C)=O

>  <Molecular Formula>
C12H20O2

>  <InChIKey>
DOHPAUQUDHOTNI-UHFFFAOYSA-N

>  <Repellency>
Inactive

>  <Reference DOI>
10.3390/toxics11100837

>  <Target Organism>
Not applied

$$$$
Compound 546
Actelion Java MolfileCreator 2.0

  0  0  0  0  0  0              0 V3000
M  V30 BEGIN CTAB
M  V30 COUNTS 14 13 0 0 0
M  V30 BEGIN ATOM
M  V30 1 O 0.0 0.0 0.0 0
M  V30 2 C 0.0 -1.4973 0.0 0
M  V30 3 O -1.2969 -2.2519 0.0 0
M  V30 4 C 1.2969 -2.2519 0.0 0
M  V30 5 C -2.5938 -1.4973 0.0 0
M  V30 6 C 2.5938 -1.4973 0.0 0
M  V30 7 C 1.2969 -3.7493 0.0 0
M  V30 8 C -3.8908 -2.2519 0.0 0
M  V30 9 C -5.1877 -1.4973 0.0 0
M  V30 10 C -6.4846 -2.2519 0.0 0
M  V30 11 C -7.7816 -1.4973 0.0 0
M  V30 12 C -9.0785 -2.2519 0.0 0
M  V30 13 C -10.3754 -1.4973 0.0 0
M  V30 14 C -11.6724 -2.2519 0.0 0
M  V30 END ATOM
M  V30 BEGIN BOND
M  V30 1 2 1 2
M  V30 2 1 2 3
M  V30 3 1 2 4
M  V30 4 1 3 5
M  V30 5 2 4 6
M  V30 6 1 4 7
M  V30 7 1 5 8
M  V30 8 1 8 9
M  V30 9 1 9 10
M  V30 10 1 10 11
M  V30 11 1 11 12
M  V30 12 1 12 13
M  V30 13 1 13 14
M  V30 END BOND
M  V30 END CTAB
M  END
>  <Molecule Name>
Methacrylic acid, octyl ester

>  <Activity Label>
0

>  <SMILES>
CCCCCCCCOC(C(C)=C)=O

>  <Molecular Formula>
C12H22O2

>  <InChIKey>
NZIDBRBFGPQCRY-UHFFFAOYSA-N

>  <Repellency>
Inactive

>  <Reference DOI>
10.3390/toxics11100837

>  <Target Organism>
Not applied

$$$$
Compound 547
Actelion Java MolfileCreator 2.0

  0  0  0  0  0  0              0 V3000
M  V30 BEGIN CTAB
M  V30 COUNTS 14 13 0 0 0
M  V30 BEGIN ATOM
M  V30 1 O 0.0 0.0 0.0 0
M  V30 2 C 0.0 -1.4998 0.0 0
M  V30 3 O -1.2991 -2.2557 0.0 0
M  V30 4 C 1.2991 -2.2557 0.0 0
M  V30 5 C -2.5982 -1.5116 0.0 0
M  V30 6 C 2.5982 -1.5116 0.0 0
M  V30 7 C 1.2991 -3.7555 0.0 0
M  V30 8 C -3.8973 -2.2675 0.0 0 CFG=2
M  V30 9 C -5.1964 -1.5234 0.0 0
M  V30 10 C -3.8973 -3.7674 0.0 0
M  V30 11 C -6.4955 -2.2793 0.0 0
M  V30 12 C -2.5982 -4.5114 0.0 0
M  V30 13 C -7.7946 -1.5353 0.0 0
M  V30 14 C -9.0937 -2.2911 0.0 0
M  V30 END ATOM
M  V30 BEGIN BOND
M  V30 1 2 1 2
M  V30 2 1 2 3
M  V30 3 1 2 4
M  V30 4 1 3 5
M  V30 5 2 4 6
M  V30 6 1 4 7
M  V30 7 1 8 5 CFG=1
M  V30 8 1 8 9
M  V30 9 1 8 10
M  V30 10 1 9 11
M  V30 11 1 10 12
M  V30 12 1 11 13
M  V30 13 1 13 14
M  V30 END BOND
M  V30 BEGIN COLLECTION
M  V30 MDLV30/STERAC1 ATOMS=(1 8)
M  V30 END COLLECTION
M  V30 END CTAB
M  END
>  <Molecule Name>
Methacrylic acid, 2-ethylhexyl ester

>  <Activity Label>
0

>  <SMILES>
CCCCC(CC)COC(C(C)=C)=O

>  <Molecular Formula>
C12H22O2

>  <InChIKey>
WDQMWEYDKDCEHT-UHFFFAOYSA-N

>  <Repellency>
Inactive

>  <Reference DOI>
10.3390/toxics11100837

>  <Target Organism>
Not applied

$$$$
Compound 548
Actelion Java MolfileCreator 2.0

  0  0  0  0  0  0              0 V3000
M  V30 BEGIN CTAB
M  V30 COUNTS 14 13 0 0 0
M  V30 BEGIN ATOM
M  V30 1 O 0.0 0.0 0.0 0
M  V30 2 C 0.0 -1.4996 0.0 0
M  V30 3 O -1.2989 -2.2553 0.0 0
M  V30 4 C 1.2989 -2.2553 0.0 0
M  V30 5 C -2.5978 -1.5114 0.0 0 CFG=2
M  V30 6 C -2.5978 -0.0118 0.0 0
M  V30 7 C -3.8967 -2.2672 0.0 0
M  V30 8 C -2.5978 -3.0111 0.0 0
M  V30 9 C -1.2989 0.7321 0.0 0
M  V30 10 C -5.1956 -1.5232 0.0 0
M  V30 11 C -6.4946 -2.279 0.0 0
M  V30 12 C -7.7935 -1.535 0.0 0
M  V30 13 C -9.0924 -2.2908 0.0 0
M  V30 14 C -7.7935 -0.0354 0.0 0
M  V30 END ATOM
M  V30 BEGIN BOND
M  V30 1 2 1 2
M  V30 2 1 2 3
M  V30 3 1 2 4
M  V30 4 1 3 5
M  V30 5 1 5 6
M  V30 6 1 5 7
M  V30 7 1 5 8 CFG=3
M  V30 8 2 6 9
M  V30 9 1 7 10
M  V30 10 1 10 11
M  V30 11 2 11 12
M  V30 12 1 12 13
M  V30 13 1 12 14
M  V30 END BOND
M  V30 BEGIN COLLECTION
M  V30 MDLV30/STERAC1 ATOMS=(1 5)
M  V30 END COLLECTION
M  V30 END CTAB
M  END
>  <Molecule Name>
Acetic acid, linalyl ester

>  <Activity Label>
0

>  <SMILES>
CC(CCC=C(C)C)(C=C)OC(C)=O

>  <Molecular Formula>
C12H20O2

>  <InChIKey>
UWKAYLJWKGQEPM-UHFFFAOYSA-N

>  <Repellency>
Inactive

>  <Reference DOI>
10.3390/toxics11100837

>  <Target Organism>
Not applied

$$$$
Compound 549
Actelion Java MolfileCreator 2.0

  0  0  0  0  0  0              0 V3000
M  V30 BEGIN CTAB
M  V30 COUNTS 14 13 0 0 0
M  V30 BEGIN ATOM
M  V30 1 O 0.0 0.0 0.0 0
M  V30 2 C -1.2973 0.7548 0.0 0
M  V30 3 C 1.2973 0.7548 0.0 0
M  V30 4 O -1.2973 2.2526 0.0 0
M  V30 5 C -2.5946 0.0 0.0 0
M  V30 6 C 2.5946 0.0 0.0 0
M  V30 7 C 0.0 2.9956 0.0 0
M  V30 8 C -3.8919 0.7548 0.0 0
M  V30 9 C 0.0 4.4934 0.0 0
M  V30 10 C -5.1893 0.0 0.0 0
M  V30 11 C -6.4866 0.7548 0.0 0
M  V30 12 C -7.7839 0.0 0.0 0
M  V30 13 C -9.0812 0.7548 0.0 0
M  V30 14 C -10.3786 0.0 0.0 0
M  V30 END ATOM
M  V30 BEGIN BOND
M  V30 1 1 1 2
M  V30 2 1 1 3
M  V30 3 1 2 4
M  V30 4 1 2 5
M  V30 5 1 3 6
M  V30 6 1 4 7
M  V30 7 1 5 8
M  V30 8 1 7 9
M  V30 9 1 8 10
M  V30 10 1 10 11
M  V30 11 1 11 12
M  V30 12 1 12 13
M  V30 13 1 13 14
M  V30 END BOND
M  V30 END CTAB
M  END
>  <Molecule Name>
n-Octaldehyde diethyl  acetal

>  <Activity Label>
0

>  <SMILES>
CCCCCCCC(OCC)OCC

>  <Molecular Formula>
C12H26O2

>  <InChIKey>
BRKIPAWFUDCCOO-UHFFFAOYSA-N

>  <Repellency>
Inactive

>  <Reference DOI>
10.3390/toxics11100837

>  <Target Organism>
Not applied

$$$$
Compound 550
Actelion Java MolfileCreator 2.0

  0  0  0  0  0  0              0 V3000
M  V30 BEGIN CTAB
M  V30 COUNTS 14 13 0 0 0
M  V30 BEGIN ATOM
M  V30 1 O 0.0 0.0 0.0 0
M  V30 2 C 0.0 1.5001 0.0 0
M  V30 3 O 1.2993 2.2442 0.0 0
M  V30 4 C -1.2993 2.2442 0.0 0
M  V30 5 C 2.5986 1.4883 0.0 0
M  V30 6 O -1.2993 3.7443 0.0 0
M  V30 7 C -2.5986 1.4883 0.0 0
M  V30 8 C 3.8979 2.2324 0.0 0
M  V30 9 O -2.5986 -0.0118 0.0 0
M  V30 10 C -3.8979 2.2324 0.0 0
M  V30 11 O -3.8979 3.7325 0.0 0
M  V30 12 O -5.1972 1.4764 0.0 0
M  V30 13 C -6.4965 2.2206 0.0 0
M  V30 14 C -7.7958 1.4646 0.0 0
M  V30 END ATOM
M  V30 BEGIN BOND
M  V30 1 2 1 2
M  V30 2 1 2 3
M  V30 3 1 2 4
M  V30 4 1 3 5
M  V30 5 1 4 6
M  V30 6 1 4 7
M  V30 7 1 5 8
M  V30 8 1 7 9
M  V30 9 1 7 10
M  V30 10 2 10 11
M  V30 11 1 10 12
M  V30 12 1 12 13
M  V30 13 1 13 14
M  V30 END BOND
M  V30 END CTAB
M  END
>  <Molecule Name>
Tartaric acid, diethyl ester

>  <Activity Label>
0

>  <SMILES>
CCOC(C(C(C(OCC)=O)O)O)=O

>  <Molecular Formula>
C8H14O6

>  <InChIKey>
YSAVZVORKRDODB-UHFFFAOYSA-N

>  <Repellency>
Inactive

>  <Reference DOI>
10.3390/toxics11100837

>  <Target Organism>
Not applied

$$$$
Compound 551
Actelion Java MolfileCreator 2.0

  0  0  0  0  0  0              0 V3000
M  V30 BEGIN CTAB
M  V30 COUNTS 14 13 0 0 0
M  V30 BEGIN ATOM
M  V30 1 O 0.0 0.0 0.0 0
M  V30 2 C 0.0 -1.4993 0.0 0
M  V30 3 C 1.2986 -2.255 0.0 0
M  V30 4 C -1.2986 -2.255 0.0 0
M  V30 5 C 2.5973 -1.5112 0.0 0
M  V30 6 C 3.896 -2.2668 0.0 0
M  V30 7 C 5.1947 -1.523 0.0 0
M  V30 8 C 6.4934 -2.2786 0.0 0
M  V30 9 C 7.7921 -1.5348 0.0 0
M  V30 10 C 9.0908 -2.2904 0.0 0
M  V30 11 C 10.3895 -1.5466 0.0 0
M  V30 12 C 11.6882 -2.3022 0.0 0
M  V30 13 C 12.9869 -1.5584 0.0 0
M  V30 14 C 14.2856 -2.314 0.0 0
M  V30 END ATOM
M  V30 BEGIN BOND
M  V30 1 2 1 2
M  V30 2 1 2 3
M  V30 3 1 2 4
M  V30 4 1 3 5
M  V30 5 1 5 6
M  V30 6 1 6 7
M  V30 7 1 7 8
M  V30 8 1 8 9
M  V30 9 1 9 10
M  V30 10 1 10 11
M  V30 11 1 11 12
M  V30 12 1 12 13
M  V30 13 1 13 14
M  V30 END BOND
M  V30 END CTAB
M  END
>  <Molecule Name>
Methyl undecyl ketone

>  <Activity Label>
0

>  <SMILES>
CCCCCCCCCCCC(C)=O

>  <Molecular Formula>
C13H26O

>  <InChIKey>
CYIFVRUOHKNECG-UHFFFAOYSA-N

>  <Repellency>
Inactive

>  <Reference DOI>
10.3390/toxics11100837

>  <Target Organism>
Not applied

$$$$
Compound 552
Actelion Java MolfileCreator 2.0

  0  0  0  0  0  0              0 V3000
M  V30 BEGIN CTAB
M  V30 COUNTS 14 13 0 0 0
M  V30 BEGIN ATOM
M  V30 1 O 0.0 0.0 0.0 0
M  V30 2 C 0.0 -1.5016 0.0 0
M  V30 3 C 0.0 -3.0033 0.0 0
M  V30 4 C 1.3006 -0.7567 0.0 0
M  V30 5 C -1.3006 -0.7567 0.0 0
M  V30 6 C -1.3006 -3.7601 0.0 0
M  V30 7 C 2.6013 -1.5016 0.0 0
M  V30 8 C -2.6013 -1.5016 0.0 0
M  V30 9 C -1.3006 -5.2618 0.0 0
M  V30 10 C -2.6013 -3.0152 0.0 0
M  V30 11 C 3.902 -0.7567 0.0 0
M  V30 12 C -3.902 -0.7567 0.0 0
M  V30 13 C 5.2027 -1.5016 0.0 0
M  V30 14 C -5.2027 -1.5016 0.0 0
M  V30 END ATOM
M  V30 BEGIN BOND
M  V30 1 1 1 2
M  V30 2 1 2 3
M  V30 3 1 2 4
M  V30 4 1 2 5
M  V30 5 1 3 6
M  V30 6 1 4 7
M  V30 7 1 5 8
M  V30 8 1 6 9
M  V30 9 1 6 10
M  V30 10 1 7 11
M  V30 11 1 8 12
M  V30 12 1 11 13
M  V30 13 1 12 14
M  V30 END BOND
M  V30 END CTAB
M  END
>  <Molecule Name>
Dibutyl iso-butylcarbinol

>  <Activity Label>
0

>  <SMILES>
CCCCC(CCCC)(CC(C)C)O

>  <Molecular Formula>
C13H28O

>  <InChIKey>
GMLGNXFZAPAVHK-UHFFFAOYSA-N

>  <Repellency>
Inactive

>  <Reference DOI>
10.3390/toxics11100837

>  <Target Organism>
Not applied

$$$$
Compound 553
Actelion Java MolfileCreator 2.0

  0  0  0  0  0  0              0 V3000
M  V30 BEGIN CTAB
M  V30 COUNTS 14 13 0 0 0
M  V30 BEGIN ATOM
M  V30 1 O 0.0 0.0 0.0 0
M  V30 2 C 0.0 1.4976 0.0 0
M  V30 3 O -1.2971 2.2523 0.0 0
M  V30 4 C 1.2971 2.2523 0.0 0 CFG=1
M  V30 5 C -2.5942 1.4976 0.0 0
M  V30 6 O 2.5942 1.4976 0.0 0
M  V30 7 C 1.2971 3.7499 0.0 0
M  V30 8 C -3.8914 2.2523 0.0 0
M  V30 9 C 3.8914 2.2523 0.0 0
M  V30 10 O -5.1885 1.4976 0.0 0
M  V30 11 O 3.8914 3.7499 0.0 0
M  V30 12 C 5.1885 1.4976 0.0 0
M  V30 13 C -6.4857 2.2523 0.0 0
M  V30 14 C -7.7828 1.4976 0.0 0
M  V30 END ATOM
M  V30 BEGIN BOND
M  V30 1 2 1 2
M  V30 2 1 2 3
M  V30 3 1 2 4
M  V30 4 1 3 5
M  V30 5 1 4 6
M  V30 6 1 4 7 CFG=3
M  V30 7 1 5 8
M  V30 8 1 6 9
M  V30 9 1 8 10
M  V30 10 2 9 11
M  V30 11 1 9 12
M  V30 12 1 10 13
M  V30 13 1 13 14
M  V30 END BOND
M  V30 BEGIN COLLECTION
M  V30 MDLV30/STERAC1 ATOMS=(1 4)
M  V30 END COLLECTION
M  V30 END CTAB
M  END
>  <Molecule Name>
alpha-Acetoxypropionic acid, ethoxyethyl ester

>  <Activity Label>
0

>  <SMILES>
CCOCCOC(C(C)OC(C)=O)=O

>  <Molecular Formula>
C9H16O5

>  <InChIKey>
DGYAFVYMPUWVQY-UHFFFAOYSA-N

>  <Repellency>
Inactive

>  <Reference DOI>
10.3390/toxics11100837

>  <Target Organism>
Not applied

$$$$
Compound 554
Actelion Java MolfileCreator 2.0

  0  0  0  0  0  0              0 V3000
M  V30 BEGIN CTAB
M  V30 COUNTS 14 13 0 0 0
M  V30 BEGIN ATOM
M  V30 1 O 0.0 0.0 0.0 0
M  V30 2 C 0.0 -1.4994 0.0 0
M  V30 3 O -1.2987 -2.255 0.0 0
M  V30 4 O 1.2987 -2.255 0.0 0
M  V30 5 C -2.5974 -1.5112 0.0 0 CFG=2
M  V30 6 C 2.5974 -1.5112 0.0 0
M  V30 7 C -3.8961 -2.2668 0.0 0
M  V30 8 C -2.5974 -0.0118 0.0 0
M  V30 9 C 3.8961 -2.2668 0.0 0
M  V30 10 O -3.8961 -3.7662 0.0 0
M  V30 11 O -5.1948 -1.523 0.0 0
M  V30 12 C 5.1948 -1.523 0.0 0
M  V30 13 C -6.4935 -2.2786 0.0 0
M  V30 14 C 6.4935 -2.2786 0.0 0
M  V30 END ATOM
M  V30 BEGIN BOND
M  V30 1 2 1 2
M  V30 2 1 2 3
M  V30 3 1 2 4
M  V30 4 1 3 5
M  V30 5 1 4 6
M  V30 6 1 5 7
M  V30 7 1 5 8 CFG=3
M  V30 8 1 6 9
M  V30 9 2 7 10
M  V30 10 1 7 11
M  V30 11 1 9 12
M  V30 12 1 11 13
M  V30 13 1 12 14
M  V30 END BOND
M  V30 BEGIN COLLECTION
M  V30 MDLV30/STERAC1 ATOMS=(1 5)
M  V30 END COLLECTION
M  V30 END CTAB
M  END
>  <Molecule Name>
Carbonic acid, n-butyl alpha-carbomethoxyethyl ester

>  <Activity Label>
0

>  <SMILES>
CCCCOC(OC(C)C(OC)=O)=O

>  <Molecular Formula>
C9H16O5

>  <InChIKey>
DJSNBTGCDCIMFJ-UHFFFAOYSA-N

>  <Repellency>
Inactive

>  <Reference DOI>
10.3390/toxics11100837

>  <Target Organism>
Not applied

$$$$
Compound 555
Actelion Java MolfileCreator 2.0

  0  0  0  0  0  0              0 V3000
M  V30 BEGIN CTAB
M  V30 COUNTS 14 13 0 0 0
M  V30 BEGIN ATOM
M  V30 1 O 0.0 0.0 0.0 0
M  V30 2 C 0.0 -1.4994 0.0 0
M  V30 3 O -1.2987 -2.255 0.0 0
M  V30 4 O 1.2987 -2.255 0.0 0
M  V30 5 C -2.5974 -1.5112 0.0 0 CFG=2
M  V30 6 C 2.5974 -1.5112 0.0 0
M  V30 7 C -3.8961 -2.2668 0.0 0
M  V30 8 C -2.5974 -0.0118 0.0 0
M  V30 9 C 3.8961 -2.2668 0.0 0
M  V30 10 O -3.8961 -3.7662 0.0 0
M  V30 11 O -5.1948 -1.523 0.0 0
M  V30 12 C -6.4935 -2.2786 0.0 0
M  V30 13 C -7.7922 -1.5348 0.0 0
M  V30 14 C -9.0909 -2.2904 0.0 0
M  V30 END ATOM
M  V30 BEGIN BOND
M  V30 1 2 1 2
M  V30 2 1 2 3
M  V30 3 1 2 4
M  V30 4 1 3 5
M  V30 5 1 4 6
M  V30 6 1 5 7
M  V30 7 1 5 8 CFG=3
M  V30 8 1 6 9
M  V30 9 2 7 10
M  V30 10 1 7 11
M  V30 11 1 11 12
M  V30 12 1 12 13
M  V30 13 2 13 14
M  V30 END BOND
M  V30 BEGIN COLLECTION
M  V30 MDLV30/STERAC1 ATOMS=(1 5)
M  V30 END COLLECTION
M  V30 END CTAB
M  END
>  <Molecule Name>
Carbonic acid, ethyl alpha-carboallyloxyethyl ester

>  <Activity Label>
0

>  <SMILES>
CCOC(OC(C)C(OCC=C)=O)=O

>  <Molecular Formula>
C9H14O5

>  <InChIKey>
CCIWCZPUXJKPHA-UHFFFAOYSA-N

>  <Repellency>
Inactive

>  <Reference DOI>
10.3390/toxics11100837

>  <Target Organism>
Not applied

$$$$
Compound 556
Actelion Java MolfileCreator 2.0

  0  0  0  0  0  0              0 V3000
M  V30 BEGIN CTAB
M  V30 COUNTS 14 13 0 0 0
M  V30 BEGIN ATOM
M  V30 1 O 0.0 0.0 0.0 0
M  V30 2 C 0.0 1.4998 0.0 0
M  V30 3 O -1.2991 2.2439 0.0 0
M  V30 4 C 1.2991 2.2439 0.0 0
M  V30 5 C -2.5982 1.488 0.0 0
M  V30 6 C 2.5982 1.488 0.0 0
M  V30 7 C -3.8973 2.2321 0.0 0
M  V30 8 C -2.5982 -0.0118 0.0 0
M  V30 9 O 3.8973 2.2321 0.0 0
M  V30 10 C -5.1964 1.4762 0.0 0
M  V30 11 C 5.1964 1.4762 0.0 0
M  V30 12 C 6.4955 2.2202 0.0 0
M  V30 13 C 5.1964 -0.0236 0.0 0
M  V30 14 C 7.7946 1.4644 0.0 0
M  V30 END ATOM
M  V30 BEGIN BOND
M  V30 1 2 1 2
M  V30 2 1 2 3
M  V30 3 1 2 4
M  V30 4 1 3 5
M  V30 5 1 4 6
M  V30 6 1 5 7
M  V30 7 1 5 8
M  V30 8 1 6 9
M  V30 9 1 7 10
M  V30 10 1 9 11
M  V30 11 1 11 12
M  V30 12 1 11 13
M  V30 13 1 12 14
M  V30 END BOND
M  V30 END CTAB
M  END
>  <Molecule Name>
beta-sec-butoxypropionic acid, sec-butyl ester

>  <Activity Label>
0

>  <SMILES>
CCC(C)OCCC(OC(C)CC)=O

>  <Molecular Formula>
C11H22O3

>  <InChIKey>
GGRYNIFHSXTDAB-UHFFFAOYSA-N

>  <Repellency>
Inactive

>  <Reference DOI>
10.3390/toxics11100837

>  <Target Organism>
Not applied

$$$$
Compound 557
Actelion Java MolfileCreator 2.0

  0  0  0  0  0  0              0 V3000
M  V30 BEGIN CTAB
M  V30 COUNTS 14 13 0 0 0
M  V30 BEGIN ATOM
M  V30 1 O 0.0 0.0 0.0 0
M  V30 2 C 0.0 -1.5 0.0 0
M  V30 3 O -1.2992 -2.256 0.0 0
M  V30 4 C 1.2992 -2.256 0.0 0 CFG=2
M  V30 5 C -2.5985 -1.5119 0.0 0
M  V30 6 C 1.2992 -3.7561 0.0 0
M  V30 7 C 2.5985 -1.5119 0.0 0
M  V30 8 C -3.8978 -2.2678 0.0 0
M  V30 9 O 0.0 -4.5002 0.0 0
M  V30 10 C 2.5985 -4.5002 0.0 0
M  V30 11 C 3.8978 -2.2678 0.0 0
M  V30 12 C 5.1971 -1.5237 0.0 0
M  V30 13 C 6.4964 -2.2796 0.0 0
M  V30 14 C 7.7957 -1.5355 0.0 0
M  V30 END ATOM
M  V30 BEGIN BOND
M  V30 1 2 1 2
M  V30 2 1 2 3
M  V30 3 1 2 4
M  V30 4 1 3 5
M  V30 5 1 4 6
M  V30 6 1 4 7 CFG=1
M  V30 7 1 5 8
M  V30 8 2 6 9
M  V30 9 1 6 10
M  V30 10 1 7 11
M  V30 11 1 11 12
M  V30 12 1 12 13
M  V30 13 1 13 14
M  V30 END BOND
M  V30 BEGIN COLLECTION
M  V30 MDLV30/STERAC1 ATOMS=(1 4)
M  V30 END COLLECTION
M  V30 END CTAB
M  END
>  <Molecule Name>
2-Amylacetoacetic acid, ethyl ester

>  <Activity Label>
0

>  <SMILES>
CCCCCC(C(C)=O)C(OCC)=O

>  <Molecular Formula>
C11H20O3

>  <InChIKey>
XIGZBCUFFUBWDM-UHFFFAOYSA-N

>  <Repellency>
Inactive

>  <Reference DOI>
10.3390/toxics11100837

>  <Target Organism>
Not applied

$$$$
Compound 558
Actelion Java MolfileCreator 2.0

  0  0  0  0  0  0              0 V3000
M  V30 BEGIN CTAB
M  V30 COUNTS 14 13 0 0 0
M  V30 BEGIN ATOM
M  V30 1 O 0.0 0.0 0.0 0
M  V30 2 C 0.0 -1.5 0.0 0
M  V30 3 O -1.2992 -2.256 0.0 0
M  V30 4 C 1.2992 -2.256 0.0 0
M  V30 5 C -2.5985 -1.5119 0.0 0
M  V30 6 C 1.2992 -3.7561 0.0 0
M  V30 7 C 2.5985 -1.5119 0.0 0
M  V30 8 C -3.8978 -2.2678 0.0 0
M  V30 9 O 2.5985 -4.5002 0.0 0
M  V30 10 C 0.0 -4.5002 0.0 0
M  V30 11 C 3.8978 -2.2678 0.0 0
M  V30 12 C 5.1971 -1.5237 0.0 0
M  V30 13 C 6.4964 -2.2796 0.0 0
M  V30 14 C 7.7957 -1.5355 0.0 0
M  V30 END ATOM
M  V30 BEGIN BOND
M  V30 1 2 1 2
M  V30 2 1 2 3
M  V30 3 1 2 4
M  V30 4 1 3 5
M  V30 5 1 4 6
M  V30 6 1 4 7
M  V30 7 1 5 8
M  V30 8 1 6 9
M  V30 9 1 6 10
M  V30 10 1 7 11
M  V30 11 1 11 12
M  V30 12 1 12 13
M  V30 13 1 13 14
M  V30 END BOND
M  V30 END CTAB
M  END
>  <Molecule Name>
2-Amyl-3-hydroxybutyric acid, ethyl ester

>  <Activity Label>
0

>  <SMILES>
CCCCCC(C(C)O)C(OCC)=O

>  <Molecular Formula>
C11H22O3

>  <InChIKey>
JPYKOYZYBIWOAE-UHFFFAOYSA-N

>  <Repellency>
Inactive

>  <Reference DOI>
10.3390/toxics11100837

>  <Target Organism>
Not applied

$$$$
Compound 559
Actelion Java MolfileCreator 2.0

  0  0  0  0  0  0              0 V3000
M  V30 BEGIN CTAB
M  V30 COUNTS 14 13 0 0 0
M  V30 BEGIN ATOM
M  V30 1 O 0.0 0.0 0.0 0
M  V30 2 C 0.0 -1.4998 0.0 0
M  V30 3 O 1.2991 -2.2557 0.0 0
M  V30 4 C -1.2991 -2.2557 0.0 0
M  V30 5 C 2.5982 -1.5116 0.0 0
M  V30 6 C -2.5982 -1.5116 0.0 0
M  V30 7 O -2.5982 -0.0118 0.0 0
M  V30 8 C -3.8973 -2.2675 0.0 0
M  V30 9 C -5.1964 -1.5234 0.0 0
M  V30 10 C -3.8973 -3.7674 0.0 0
M  V30 11 C -6.4955 -2.2793 0.0 0
M  V30 12 C -2.5982 -4.5114 0.0 0
M  V30 13 C -7.7946 -1.5353 0.0 0
M  V30 14 C -9.0937 -2.2911 0.0 0
M  V30 END ATOM
M  V30 BEGIN BOND
M  V30 1 2 1 2
M  V30 2 1 2 3
M  V30 3 1 2 4
M  V30 4 1 3 5
M  V30 5 1 4 6
M  V30 6 1 6 7
M  V30 7 1 6 8
M  V30 8 1 8 9
M  V30 9 1 8 10
M  V30 10 1 9 11
M  V30 11 1 10 12
M  V30 12 1 11 13
M  V30 13 1 13 14
M  V30 END BOND
M  V30 END CTAB
M  END
>  <Molecule Name>
3-Hydroxy-4-ethyloctanoic acid, methyl ester

>  <Activity Label>
0

>  <SMILES>
CCCCC(CC)C(CC(OC)=O)O

>  <Molecular Formula>
C11H22O3

>  <InChIKey>
LKIRLAUWENNEMK-UHFFFAOYSA-N

>  <Repellency>
Inactive

>  <Reference DOI>
10.3390/toxics11100837

>  <Target Organism>
Not applied

$$$$
Compound 560
Actelion Java MolfileCreator 2.0

  0  0  0  0  0  0              0 V3000
M  V30 BEGIN CTAB
M  V30 COUNTS 14 13 0 0 0
M  V30 BEGIN ATOM
M  V30 1 O 0.0 0.0 0.0 0
M  V30 2 C 0.0 1.4971 0.0 0
M  V30 3 O 1.2967 2.2515 0.0 0
M  V30 4 O -1.2967 2.2515 0.0 0
M  V30 5 C 2.5934 1.4971 0.0 0
M  V30 6 C -2.5934 1.4971 0.0 0
M  V30 7 C 3.8901 2.2515 0.0 0
M  V30 8 C -3.8901 2.2515 0.0 0
M  V30 9 C 5.1869 1.4971 0.0 0
M  V30 10 C -5.1869 1.4971 0.0 0
M  V30 11 C 6.4836 2.2515 0.0 0
M  V30 12 C -6.4836 2.2515 0.0 0
M  V30 13 C 7.7803 1.4971 0.0 0
M  V30 14 C -7.7803 1.4971 0.0 0
M  V30 END ATOM
M  V30 BEGIN BOND
M  V30 1 2 1 2
M  V30 2 1 2 3
M  V30 3 1 2 4
M  V30 4 1 3 5
M  V30 5 1 4 6
M  V30 6 1 5 7
M  V30 7 1 6 8
M  V30 8 1 7 9
M  V30 9 1 8 10
M  V30 10 1 9 11
M  V30 11 1 10 12
M  V30 12 1 11 13
M  V30 13 1 12 14
M  V30 END BOND
M  V30 END CTAB
M  END
>  <Molecule Name>
Carbonic acid, di-n-amyl ester

>  <Activity Label>
0

>  <SMILES>
CCCCCOC(OCCCCC)=O

>  <Molecular Formula>
C11H22O3

>  <InChIKey>
HSNQKJVQUFYBBY-UHFFFAOYSA-N

>  <Repellency>
Inactive

>  <Reference DOI>
10.3390/toxics11100837

>  <Target Organism>
Not applied

$$$$
Compound 561
Actelion Java MolfileCreator 2.0

  0  0  0  0  0  0              0 V3000
M  V30 BEGIN CTAB
M  V30 COUNTS 14 13 0 0 0
M  V30 BEGIN ATOM
M  V30 1 O 0.0 0.0 0.0 0
M  V30 2 C 0.0 -1.4994 0.0 0
M  V30 3 O 1.2987 -2.255 0.0 0
M  V30 4 O -1.2987 -2.255 0.0 0
M  V30 5 C 2.5974 -1.5112 0.0 0
M  V30 6 C -2.5974 -1.5112 0.0 0
M  V30 7 C 3.8961 -2.2668 0.0 0
M  V30 8 C -3.8961 -2.2668 0.0 0
M  V30 9 C 5.1948 -1.523 0.0 0
M  V30 10 C -5.1948 -1.523 0.0 0
M  V30 11 C 6.4935 -2.2786 0.0 0
M  V30 12 C 5.1948 -0.0236 0.0 0
M  V30 13 C -5.1948 -0.0236 0.0 0
M  V30 14 C -6.4935 -2.2786 0.0 0
M  V30 END ATOM
M  V30 BEGIN BOND
M  V30 1 2 1 2
M  V30 2 1 2 3
M  V30 3 1 2 4
M  V30 4 1 3 5
M  V30 5 1 4 6
M  V30 6 1 5 7
M  V30 7 1 6 8
M  V30 8 1 7 9
M  V30 9 1 8 10
M  V30 10 1 9 11
M  V30 11 1 9 12
M  V30 12 1 10 13
M  V30 13 1 10 14
M  V30 END BOND
M  V30 END CTAB
M  END
>  <Molecule Name>
Carbonic acid, di-iso-amyl ester

>  <Activity Label>
0

>  <SMILES>
CC(C)CCOC(OCCC(C)C)=O

>  <Molecular Formula>
C11H22O3

>  <InChIKey>
DWWPOAYNAWHBKI-UHFFFAOYSA-N

>  <Repellency>
Inactive

>  <Reference DOI>
10.3390/toxics11100837

>  <Target Organism>
Not applied

$$$$
Compound 562
Actelion Java MolfileCreator 2.0

  0  0  0  0  0  0              0 V3000
M  V30 BEGIN CTAB
M  V30 COUNTS 14 13 0 0 0
M  V30 BEGIN ATOM
M  V30 1 O 0.0 0.0 0.0 0
M  V30 2 C 0.0 -1.4993 0.0 0
M  V30 3 O -1.2986 -2.255 0.0 0
M  V30 4 C 1.2986 -2.255 0.0 0
M  V30 5 C -2.5973 -1.5112 0.0 0
M  V30 6 C 2.5973 -1.5112 0.0 0
M  V30 7 C -3.896 -2.2668 0.0 0
M  V30 8 O 3.896 -2.2668 0.0 0
M  V30 9 C -5.1947 -1.523 0.0 0
M  V30 10 C 5.1947 -1.523 0.0 0
M  V30 11 C -6.4934 -2.2786 0.0 0
M  V30 12 C 6.4934 -2.2786 0.0 0
M  V30 13 C 7.7921 -1.5348 0.0 0
M  V30 14 C 9.0908 -2.2904 0.0 0
M  V30 END ATOM
M  V30 BEGIN BOND
M  V30 1 2 1 2
M  V30 2 1 2 3
M  V30 3 1 2 4
M  V30 4 1 3 5
M  V30 5 1 4 6
M  V30 6 1 5 7
M  V30 7 1 6 8
M  V30 8 1 7 9
M  V30 9 1 8 10
M  V30 10 1 9 11
M  V30 11 1 10 12
M  V30 12 1 12 13
M  V30 13 1 13 14
M  V30 END BOND
M  V30 END CTAB
M  END
>  <Molecule Name>
beta-n-Butoxypropionic acid, n-butyl ester

>  <Activity Label>
0

>  <SMILES>
CCCCOCCC(OCCCC)=O

>  <Molecular Formula>
C11H22O3

>  <InChIKey>
BMOACRKLCOIODC-UHFFFAOYSA-N

>  <Repellency>
Inactive

>  <Reference DOI>
10.3390/toxics11100837

>  <Target Organism>
Not applied

$$$$
Compound 563
Actelion Java MolfileCreator 2.0

  0  0  0  0  0  0              0 V3000
M  V30 BEGIN CTAB
M  V30 COUNTS 14 13 0 0 0
M  V30 BEGIN ATOM
M  V30 1 O 0.0 0.0 0.0 0
M  V30 2 C -1.2988 0.7439 0.0 0
M  V30 3 C 1.2988 0.7439 0.0 0
M  V30 4 O -1.2988 2.2435 0.0 0
M  V30 5 C -2.5977 -0.0118 0.0 0
M  V30 6 C 2.5977 -0.0118 0.0 0
M  V30 7 C -2.5977 2.9992 0.0 0
M  V30 8 C -3.8966 0.7321 0.0 0
M  V30 9 C 3.8966 0.7321 0.0 0
M  V30 10 C -2.5977 4.4989 0.0 0
M  V30 11 O -5.1955 -0.0236 0.0 0
M  V30 12 C -3.8966 5.2546 0.0 0
M  V30 13 C -6.4944 0.7202 0.0 0
M  V30 14 C -7.7933 -0.0354 0.0 0
M  V30 END ATOM
M  V30 BEGIN BOND
M  V30 1 1 1 2
M  V30 2 1 1 3
M  V30 3 1 2 4
M  V30 4 1 2 5
M  V30 5 1 3 6
M  V30 6 1 4 7
M  V30 7 1 5 8
M  V30 8 1 6 9
M  V30 9 1 7 10
M  V30 10 1 8 11
M  V30 11 1 10 12
M  V30 12 1 11 13
M  V30 13 1 13 14
M  V30 END BOND
M  V30 END CTAB
M  END
>  <Molecule Name>
3-Ethoxypropionaldehyde dipropyl acetal

>  <Activity Label>
0

>  <SMILES>
CCCOC(CCOCC)OCCC

>  <Molecular Formula>
C11H24O3

>  <InChIKey>
UXBHAEHOWNIKLS-UHFFFAOYSA-N

>  <Repellency>
Inactive

>  <Reference DOI>
10.3390/toxics11100837

>  <Target Organism>
Not applied

$$$$
Compound 564
Actelion Java MolfileCreator 2.0

  0  0  0  0  0  0              0 V3000
M  V30 BEGIN CTAB
M  V30 COUNTS 14 13 0 0 0
M  V30 BEGIN ATOM
M  V30 1 O 0.0 0.0 0.0 0
M  V30 2 C 0.0 1.5001 0.0 0
M  V30 3 N 1.2993 2.2442 0.0 0
M  V30 4 C -1.2993 2.2442 0.0 0
M  V30 5 C 2.5986 1.4883 0.0 0
M  V30 6 C 1.2993 3.7443 0.0 0
M  V30 7 C -2.5986 1.4883 0.0 0
M  V30 8 C 3.8979 2.2324 0.0 0
M  V30 9 C 2.5986 4.4885 0.0 0
M  V30 10 C -3.8979 2.2324 0.0 0 CFG=1
M  V30 11 C 5.1972 1.4764 0.0 0
M  V30 12 C 2.5986 5.9886 0.0 0
M  V30 13 O -5.1972 1.4764 0.0 0
M  V30 14 C -3.8979 3.7325 0.0 0
M  V30 END ATOM
M  V30 BEGIN BOND
M  V30 1 2 1 2
M  V30 2 1 2 3
M  V30 3 1 2 4
M  V30 4 1 3 5
M  V30 5 1 3 6
M  V30 6 1 4 7
M  V30 7 1 5 8
M  V30 8 1 6 9
M  V30 9 1 7 10
M  V30 10 1 8 11
M  V30 11 1 9 12
M  V30 12 1 10 13 CFG=1
M  V30 13 1 10 14
M  V30 END BOND
M  V30 BEGIN COLLECTION
M  V30 MDLV30/STERAC1 ATOMS=(1 10)
M  V30 END COLLECTION
M  V30 END CTAB
M  END
>  <Molecule Name>
N,N-Dipropyl-4-hydroxyvaleramide

>  <Activity Label>
0

>  <SMILES>
CCCN(CCC)C(CCC(C)O)=O

>  <Molecular Formula>
C11H23NO2

>  <InChIKey>
LVNLSSXHNZXOPA-UHFFFAOYSA-N

>  <Repellency>
Inactive

>  <Reference DOI>
10.3390/toxics11100837

>  <Target Organism>
Not applied

$$$$
Compound 565
Actelion Java MolfileCreator 2.0

  0  0  0  0  0  0              0 V3000
M  V30 BEGIN CTAB
M  V30 COUNTS 14 13 0 0 0
M  V30 BEGIN ATOM
M  V30 1 O 0.0 0.0 0.0 0
M  V30 2 N -1.2993 0.7441 0.0 0 CHG=1
M  V30 3 O -1.2993 2.2442 0.0 0 CHG=-1
M  V30 4 C -2.5986 -0.0118 0.0 0
M  V30 5 C -3.8979 0.7323 0.0 0
M  V30 6 C -2.5986 -1.5119 0.0 0
M  V30 7 O -3.8979 2.2324 0.0 0
M  V30 8 C -5.1972 -0.0236 0.0 0
M  V30 9 C -6.4965 0.7205 0.0 0
M  V30 10 C -5.1972 -1.5237 0.0 0
M  V30 11 C -7.7958 -0.0354 0.0 0
M  V30 12 C -3.8979 -2.2678 0.0 0
M  V30 13 C -9.0951 0.7087 0.0 0
M  V30 14 C -10.3945 -0.0472 0.0 0
M  V30 END ATOM
M  V30 BEGIN BOND
M  V30 1 2 1 2
M  V30 2 1 2 3
M  V30 3 1 2 4
M  V30 4 1 4 5
M  V30 5 1 4 6
M  V30 6 1 5 7
M  V30 7 1 5 8
M  V30 8 1 8 9
M  V30 9 1 8 10
M  V30 10 1 9 11
M  V30 11 1 10 12
M  V30 12 1 11 13
M  V30 13 1 13 14
M  V30 END BOND
M  V30 END CTAB
M  END
>  <Molecule Name>
2-Nitro-3-hydroxy-4-ethyloctane

>  <Activity Label>
0

>  <SMILES>
CCCCC(CC)C(C(C)[N+]([O-])=O)O

>  <Molecular Formula>
C10H21NO3

>  <InChIKey>
RWRXYZNOVPNZDF-UHFFFAOYSA-N

>  <Repellency>
Inactive

>  <Reference DOI>
10.3390/toxics11100837

>  <Target Organism>
Not applied

$$$$
Compound 566
Actelion Java MolfileCreator 2.0

  0  0  0  0  0  0              0 V3000
M  V30 BEGIN CTAB
M  V30 COUNTS 14 15 0 0 0
M  V30 BEGIN ATOM
M  V30 1 Br 0.0 0.0 0.0 0
M  V30 2 C -1.2993 -0.7441 0.0 0
M  V30 3 C -2.5986 0.0118 0.0 0
M  V30 4 C -1.2993 -2.2442 0.0 0
M  V30 5 C -3.8979 -0.7323 0.0 0
M  V30 6 C -2.5986 1.5119 0.0 0
M  V30 7 C -2.5986 -2.9883 0.0 0
M  V30 8 C -3.8979 -2.2324 0.0 0
M  V30 9 C -2.5986 -4.4884 0.0 0
M  V30 10 C -3.8979 -5.2326 0.0 0
M  V30 11 C -1.2993 -5.2444 0.0 0
M  V30 12 C -3.8979 -6.7327 0.0 0
M  V30 13 C -1.2993 -6.7445 0.0 0
M  V30 14 C -2.5986 -7.4886 0.0 0
M  V30 END ATOM
M  V30 BEGIN BOND
M  V30 1 1 1 2
M  V30 2 2 2 3
M  V30 3 1 2 4
M  V30 4 1 3 5
M  V30 5 1 3 6
M  V30 6 2 4 7
M  V30 7 2 5 8
M  V30 8 1 7 9
M  V30 9 1 9 10
M  V30 10 1 9 11
M  V30 11 1 10 12
M  V30 12 1 11 13
M  V30 13 1 12 14
M  V30 14 1 7 8
M  V30 15 1 13 14
M  V30 END BOND
M  V30 END CTAB
M  END
>  <Molecule Name>
2-Bromo-4-cyclohexyltoluene

>  <Activity Label>
0

>  <SMILES>
Cc(ccc(C1CCCCC1)c1)c1Br

>  <Molecular Formula>
C13H17Br

>  <InChIKey>
RYTFUYHOVIBJFD-UHFFFAOYSA-N

>  <Repellency>
Inactive

>  <Reference DOI>
10.3390/toxics11100837

>  <Target Organism>
Not applied

$$$$
Compound 567
Actelion Java MolfileCreator 2.0

  0  0  0  0  0  0              0 V3000
M  V30 BEGIN CTAB
M  V30 COUNTS 14 15 0 0 0
M  V30 BEGIN ATOM
M  V30 1 O 0.0 0.0 0.0 0
M  V30 2 C 0.0 -1.4992 0.0 0
M  V30 3 O -1.2985 -2.2548 0.0 0
M  V30 4 C 1.2985 -2.2548 0.0 0
M  V30 5 C -2.5971 -1.511 0.0 0
M  V30 6 C 1.2985 -3.7541 0.0 0
M  V30 7 C 2.5971 -1.4992 0.0 0
M  V30 8 C -3.8957 -2.2666 0.0 0
M  V30 9 C 2.5971 -4.5096 0.0 0
M  V30 10 C 3.8957 -2.243 0.0 0
M  V30 11 O 2.9041 -5.9735 0.0 0
M  V30 12 C 3.8957 -3.7659 0.0 0
M  V30 13 C 4.3915 -6.1269 0.0 0
M  V30 14 O 5.0054 -4.7693 0.0 0
M  V30 END ATOM
M  V30 BEGIN BOND
M  V30 1 2 1 2
M  V30 2 1 2 3
M  V30 3 1 2 4
M  V30 4 1 3 5
M  V30 5 2 4 6
M  V30 6 1 4 7
M  V30 7 1 5 8
M  V30 8 1 6 9
M  V30 9 2 7 10
M  V30 10 1 9 11
M  V30 11 2 9 12
M  V30 12 1 11 13
M  V30 13 1 12 14
M  V30 14 1 10 12
M  V30 15 1 13 14
M  V30 END BOND
M  V30 END CTAB
M  END
>  <Molecule Name>
Piperonylic acid, ethyl ester

>  <Activity Label>
0

>  <SMILES>
CCOC(c(cc1)cc2c1OCO2)=O

>  <Molecular Formula>
C10H10O4

>  <InChIKey>
JGHXNKLHSHDHDG-UHFFFAOYSA-N

>  <Repellency>
Inactive

>  <Reference DOI>
10.3390/toxics11100837

>  <Target Organism>
Not applied

$$$$
Compound 568
Actelion Java MolfileCreator 2.0

  0  0  0  0  0  0              0 V3000
M  V30 BEGIN CTAB
M  V30 COUNTS 14 15 0 0 0
M  V30 BEGIN ATOM
M  V30 1 O 0.0 0.0 0.0 0
M  V30 2 C 0.0 -1.5004 0.0 0
M  V30 3 O -1.2996 -2.2448 0.0 0
M  V30 4 C 1.2996 -2.2448 0.0 0
M  V30 5 C -2.5992 -1.5004 0.0 0
M  V30 6 C -3.8988 -2.2448 0.0 0
M  V30 7 C -5.1985 -1.4886 0.0 0
M  V30 8 C -3.8988 -3.7453 0.0 0
M  V30 9 C -6.4981 -2.233 0.0 0
M  V30 10 C -5.1985 -4.4896 0.0 0
M  V30 11 O -7.9277 -1.7722 0.0 0
M  V30 12 C -6.4981 -3.7334 0.0 0
M  V30 13 C -8.8138 -2.9891 0.0 0
M  V30 14 O -7.9277 -4.1942 0.0 0
M  V30 END ATOM
M  V30 BEGIN BOND
M  V30 1 2 1 2
M  V30 2 1 2 3
M  V30 3 1 2 4
M  V30 4 1 3 5
M  V30 5 1 5 6
M  V30 6 2 6 7
M  V30 7 1 6 8
M  V30 8 1 7 9
M  V30 9 2 8 10
M  V30 10 1 9 11
M  V30 11 2 9 12
M  V30 12 1 11 13
M  V30 13 1 12 14
M  V30 14 1 10 12
M  V30 15 1 13 14
M  V30 END BOND
M  V30 END CTAB
M  END
>  <Molecule Name>
Acetic acid, piperonyl ester

>  <Activity Label>
0

>  <SMILES>
CC(OCc(cc1)cc2c1OCO2)=O

>  <Molecular Formula>
C10H10O4

>  <InChIKey>
PFWYHTORQZAGCA-UHFFFAOYSA-N

>  <Repellency>
Inactive

>  <Reference DOI>
10.3390/toxics11100837

>  <Target Organism>
Not applied

$$$$
Compound 569
Actelion Java MolfileCreator 2.0

  0  0  0  0  0  0              0 V3000
M  V30 BEGIN CTAB
M  V30 COUNTS 14 15 0 0 0
M  V30 BEGIN ATOM
M  V30 1 O 0.0 0.0 0.0 0
M  V30 2 C 0.0 1.5005 0.0 0
M  V30 3 O -1.2996 2.2448 0.0 0
M  V30 4 C 1.2996 2.2448 0.0 0
M  V30 5 C -2.5993 1.4887 0.0 0
M  V30 6 C 2.5993 1.5005 0.0 0
M  V30 7 C 1.2996 3.7454 0.0 0
M  V30 8 C -3.9699 2.1031 0.0 0
M  V30 9 C -2.7529 0.0 0.0 0
M  V30 10 C 3.899 2.2567 0.0 0
M  V30 11 C 2.5993 4.5015 0.0 0
M  V30 12 C -4.9741 0.9924 0.0 0
M  V30 13 C -4.218 -0.3071 0.0 0
M  V30 14 C 3.899 3.7572 0.0 0
M  V30 END ATOM
M  V30 BEGIN BOND
M  V30 1 2 1 2
M  V30 2 1 2 3
M  V30 3 1 2 4
M  V30 4 1 3 5
M  V30 5 2 4 6
M  V30 6 1 4 7
M  V30 7 1 5 8
M  V30 8 1 5 9
M  V30 9 1 6 10
M  V30 10 2 7 11
M  V30 11 1 8 12
M  V30 12 1 9 13
M  V30 13 2 10 14
M  V30 14 1 11 14
M  V30 15 1 12 13
M  V30 END BOND
M  V30 END CTAB
M  END
>  <Molecule Name>
Benzoic acid, cyclopentyl ester

>  <Activity Label>
0

>  <SMILES>
O=C(c1ccccc1)OC1CCCC1

>  <Molecular Formula>
C12H14O2

>  <InChIKey>
MLOUXCNEZWLVJE-UHFFFAOYSA-N

>  <Repellency>
Inactive

>  <Reference DOI>
10.3390/toxics11100837

>  <Target Organism>
Not applied

$$$$
Compound 570
Actelion Java MolfileCreator 2.0

  0  0  0  0  0  0              0 V3000
M  V30 BEGIN CTAB
M  V30 COUNTS 14 15 0 0 0
M  V30 BEGIN ATOM
M  V30 1 O 0.0 0.0 0.0 0
M  V30 2 C 0.0 1.3912 0.0 0
M  V30 3 O -1.2028 2.0869 0.0 0
M  V30 4 C 1.2028 2.0869 0.0 0
M  V30 5 C -2.4057 1.3912 0.0 0
M  V30 6 C -3.6665 1.9564 0.0 0
M  V30 7 C -2.5506 0.0144 0.0 0
M  V30 8 C -4.594 0.9275 0.0 0
M  V30 9 C -5.4346 1.9419 0.0 0
M  V30 10 C -3.4636 3.3332 0.0 0
M  V30 11 C -3.9129 -0.2753 0.0 0
M  V30 12 C -5.9853 1.768 0.0 0
M  V30 13 C -6.1302 0.3912 0.0 0
M  V30 14 C -5.623 0.1014 0.0 0
M  V30 END ATOM
M  V30 BEGIN BOND
M  V30 1 2 1 2
M  V30 2 1 2 3
M  V30 3 1 2 4
M  V30 4 1 3 5
M  V30 5 1 5 6
M  V30 6 1 5 7
M  V30 7 1 6 8
M  V30 8 1 6 9
M  V30 9 1 6 10
M  V30 10 1 7 11
M  V30 11 1 8 12
M  V30 12 1 8 13
M  V30 13 1 9 14
M  V30 14 1 8 11
M  V30 15 1 11 14
M  V30 END BOND
M  V30 END CTAB
M  END
>  <Molecule Name>
Acetic acid, bornyl ester

>  <Activity Label>
0

>  <SMILES>
CC(C)(C(CC1)C2)C1(C)C2OC(C)=O

>  <Molecular Formula>
C12H20O2

>  <InChIKey>
KGEKLUUHTZCSIP-UHFFFAOYSA-N

>  <Repellency>
Inactive

>  <Reference DOI>
10.3390/toxics11100837

>  <Target Organism>
Not applied

$$$$
Compound 571
Actelion Java MolfileCreator 2.0

  0  0  0  0  0  0              0 V3000
M  V30 BEGIN CTAB
M  V30 COUNTS 14 15 0 0 0
M  V30 BEGIN ATOM
M  V30 1 O 0.0 0.0 0.0 0
M  V30 2 C 0.0 1.5006 0.0 0
M  V30 3 O -1.2998 2.2451 0.0 0
M  V30 4 C 1.2998 2.2451 0.0 0
M  V30 5 C -2.5996 1.4888 0.0 0
M  V30 6 C 1.2998 3.7457 0.0 0
M  V30 7 C 2.5996 1.5006 0.0 0
M  V30 8 C 2.5996 4.502 0.0 0
M  V30 9 C 0.0 4.4902 0.0 0
M  V30 10 C 3.8994 2.2569 0.0 0
M  V30 11 C 3.8994 3.7457 0.0 0
M  V30 12 C 2.5996 6.0027 0.0 0
M  V30 13 C 0.0 5.9909 0.0 0
M  V30 14 C 1.2998 6.7471 0.0 0
M  V30 END ATOM
M  V30 BEGIN BOND
M  V30 1 2 1 2
M  V30 2 1 2 3
M  V30 3 1 2 4
M  V30 4 1 3 5
M  V30 5 1 4 6
M  V30 6 2 4 7
M  V30 7 2 6 8
M  V30 8 1 6 9
M  V30 9 1 7 10
M  V30 10 1 8 11
M  V30 11 1 8 12
M  V30 12 2 9 13
M  V30 13 2 12 14
M  V30 14 2 10 11
M  V30 15 1 13 14
M  V30 END BOND
M  V30 END CTAB
M  END
>  <Molecule Name>
alpha-Naphthoic acid, methyl ester

>  <Activity Label>
0

>  <SMILES>
COC(c1cccc2c1cccc2)=O

>  <Molecular Formula>
C12H10O2

>  <InChIKey>
HMRROBKAACRWBP-UHFFFAOYSA-N

>  <Repellency>
Inactive

>  <Reference DOI>
10.3390/toxics11100837

>  <Target Organism>
Not applied

$$$$
Compound 572
Actelion Java MolfileCreator 2.0

  0  0  0  0  0  0              0 V3000
M  V30 BEGIN CTAB
M  V30 COUNTS 14 15 0 0 0
M  V30 BEGIN ATOM
M  V30 1 O 0.0 0.0 0.0 0
M  V30 2 C 1.2994 -0.7442 0.0 0
M  V30 3 C -1.2994 -0.7442 0.0 0
M  V30 4 C 2.5989 0.0118 0.0 0
M  V30 5 C 1.2994 -2.2445 0.0 0
M  V30 6 C 3.8983 -0.7324 0.0 0
M  V30 7 C 2.5989 1.5121 0.0 0
M  V30 8 C 2.5989 -2.9887 0.0 0
M  V30 9 C 3.8983 -2.2327 0.0 0
M  V30 10 C 3.8983 2.2681 0.0 0
M  V30 11 C 1.2994 2.2563 0.0 0
M  V30 12 C 3.8983 3.7684 0.0 0
M  V30 13 C 1.2994 3.7566 0.0 0
M  V30 14 C 2.5989 4.5126 0.0 0
M  V30 END ATOM
M  V30 BEGIN BOND
M  V30 1 1 1 2
M  V30 2 1 1 3
M  V30 3 2 2 4
M  V30 4 1 2 5
M  V30 5 1 4 6
M  V30 6 1 4 7
M  V30 7 2 5 8
M  V30 8 2 6 9
M  V30 9 1 7 10
M  V30 10 1 7 11
M  V30 11 1 10 12
M  V30 12 1 11 13
M  V30 13 1 12 14
M  V30 14 1 8 9
M  V30 15 1 13 14
M  V30 END BOND
M  V30 END CTAB
M  END
>  <Molecule Name>
2-Cyclohexylanisole

>  <Activity Label>
0

>  <SMILES>
COc1c(C2CCCCC2)cccc1

>  <Molecular Formula>
C13H18O

>  <InChIKey>
CMMWEZJMZPQGJL-UHFFFAOYSA-N

>  <Repellency>
Inactive

>  <Reference DOI>
10.3390/toxics11100837

>  <Target Organism>
Not applied

$$$$
Compound 573
Actelion Java MolfileCreator 2.0

  0  0  0  0  0  0              0 V3000
M  V30 BEGIN CTAB
M  V30 COUNTS 14 15 0 0 0
M  V30 BEGIN ATOM
M  V30 1 O 0.0 0.0 0.0 0
M  V30 2 C -1.2994 -0.7442 0.0 0
M  V30 3 C 0.0 1.5003 0.0 0
M  V30 4 C -2.5989 0.0 0.0 0
M  V30 5 C -2.0555 -2.0437 0.0 0
M  V30 6 C -0.5552 -2.0437 0.0 0
M  V30 7 O -1.2994 2.2563 0.0 0
M  V30 8 C 1.2994 2.2445 0.0 0
M  V30 9 C -2.5989 1.5003 0.0 0
M  V30 10 O 1.453 3.733 0.0 0
M  V30 11 C 2.6698 1.6302 0.0 0
M  V30 12 C -3.8984 2.2563 0.0 0
M  V30 13 C 2.9179 4.0402 0.0 0
M  V30 14 C 3.674 2.7407 0.0 0
M  V30 END ATOM
M  V30 BEGIN BOND
M  V30 1 1 1 2
M  V30 2 1 1 3
M  V30 3 1 2 4
M  V30 4 1 2 5
M  V30 5 1 2 6
M  V30 6 1 3 7
M  V30 7 1 3 8
M  V30 8 1 4 9
M  V30 9 1 8 10
M  V30 10 2 8 11
M  V30 11 1 9 12
M  V30 12 1 10 13
M  V30 13 1 11 14
M  V30 14 1 7 9
M  V30 15 2 13 14
M  V30 END BOND
M  V30 END CTAB
M  END
>  <Molecule Name>
2-Furyl-4,4,6-trimethyl-m-dioxane

>  <Activity Label>
0

>  <SMILES>
CC1OC(c2ccc[o]2)OC(C)(C)C1

>  <Molecular Formula>
C11H16O3

>  <InChIKey>
SJVWZQYXFRLYQR-UHFFFAOYSA-N

>  <Repellency>
Inactive

>  <Reference DOI>
10.3390/toxics11100837

>  <Target Organism>
Not applied

$$$$
Compound 574
Actelion Java MolfileCreator 2.0

  0  0  0  0  0  0              0 V3000
M  V30 BEGIN CTAB
M  V30 COUNTS 14 15 0 0 0
M  V30 BEGIN ATOM
M  V30 1 O 0.0 0.0 0.0 0
M  V30 2 C -1.1109 1.0045 0.0 0
M  V30 3 N -0.9572 2.4936 0.0 0
M  V30 4 C -2.5763 0.6972 0.0 0
M  V30 5 C -2.3282 3.1082 0.0 0
M  V30 6 C 0.3427 3.25 0.0 0
M  V30 7 C -3.3209 1.9972 0.0 0
M  V30 8 C -3.3327 -0.6027 0.0 0
M  V30 9 O -2.6354 4.5736 0.0 0
M  V30 10 C 1.6427 2.4936 0.0 0
M  V30 11 C -4.8218 1.9972 0.0 0
M  V30 12 C -4.8336 -0.6027 0.0 0
M  V30 13 C 2.9427 3.25 0.0 0
M  V30 14 C -5.5782 0.6972 0.0 0
M  V30 END ATOM
M  V30 BEGIN BOND
M  V30 1 2 1 2
M  V30 2 1 2 3
M  V30 3 1 2 4
M  V30 4 1 3 5
M  V30 5 1 3 6
M  V30 6 1 4 7
M  V30 7 1 4 8
M  V30 8 2 5 9
M  V30 9 1 6 10
M  V30 10 1 7 11
M  V30 11 1 8 12
M  V30 12 2 10 13
M  V30 13 1 11 14
M  V30 14 1 5 7
M  V30 15 1 12 14
M  V30 END BOND
M  V30 END CTAB
M  END
>  <Molecule Name>
N-Allylhexahydrophthalimide

>  <Activity Label>
0

>  <SMILES>
C=CCN(C(C1C2CCCC1)=O)C2=O

>  <Molecular Formula>
C11H15NO2

>  <InChIKey>
HOADZLUEDQUBQV-UHFFFAOYSA-N

>  <Repellency>
Inactive

>  <Reference DOI>
10.3390/toxics11100837

>  <Target Organism>
Not applied

$$$$
Compound 575
Actelion Java MolfileCreator 2.0

  0  0  0  0  0  0              0 V3000
M  V30 BEGIN CTAB
M  V30 COUNTS 15 14 0 0 0
M  V30 BEGIN ATOM
M  V30 1 O 0.0 0.0 0.0 0
M  V30 2 C 1.2992 0.7441 0.0 0
M  V30 3 O 2.5985 0.0 0.0 0
M  V30 4 C 1.2992 2.2442 0.0 0
M  V30 5 C 2.5985 -1.5 0.0 0
M  V30 6 C 0.0 2.9883 0.0 0
M  V30 7 C 2.5985 2.9883 0.0 0
M  V30 8 C 3.8978 -2.256 0.0 0
M  V30 9 O 0.0 4.4884 0.0 0
M  V30 10 O -1.2992 2.2324 0.0 0
M  V30 11 C 3.8978 2.2324 0.0 0
M  V30 12 C -2.5985 2.9765 0.0 0
M  V30 13 C 5.1971 2.9765 0.0 0
M  V30 14 C -3.8978 2.2205 0.0 0
M  V30 15 C 6.4964 2.2205 0.0 0
M  V30 END ATOM
M  V30 BEGIN BOND
M  V30 1 2 1 2
M  V30 2 1 2 3
M  V30 3 1 2 4
M  V30 4 1 3 5
M  V30 5 1 4 6
M  V30 6 1 4 7
M  V30 7 1 5 8
M  V30 8 2 6 9
M  V30 9 1 6 10
M  V30 10 1 7 11
M  V30 11 1 10 12
M  V30 12 1 11 13
M  V30 13 1 12 14
M  V30 14 1 13 15
M  V30 END BOND
M  V30 END CTAB
M  END
>  <Molecule Name>
n-Butylmalonic acid, diethyl ester

>  <Activity Label>
0

>  <SMILES>
CCCCC(C(OCC)=O)C(OCC)=O

>  <Molecular Formula>
C11H20O4

>  <InChIKey>
RPNFNBGRHCUORR-UHFFFAOYSA-N

>  <Repellency>
Inactive

>  <Reference DOI>
10.3390/toxics11100837

>  <Target Organism>
Not applied

$$$$
Compound 576
Actelion Java MolfileCreator 2.0

  0  0  0  0  0  0              0 V3000
M  V30 BEGIN CTAB
M  V30 COUNTS 15 14 0 0 0
M  V30 BEGIN ATOM
M  V30 1 O 0.0 0.0 0.0 0
M  V30 2 C 0.0 -1.5015 0.0 0
M  V30 3 O 1.3005 -2.2464 0.0 0
M  V30 4 C -1.3005 -2.2464 0.0 0
M  V30 5 C 2.6011 -1.5015 0.0 0
M  V30 6 C -2.6011 -1.5015 0.0 0
M  V30 7 C -1.3005 -3.748 0.0 0
M  V30 8 C 3.9017 -2.2464 0.0 0
M  V30 9 O -2.6011 0.0 0.0 0
M  V30 10 O -3.9017 -2.2464 0.0 0
M  V30 11 C -2.6011 -4.5047 0.0 0
M  V30 12 C -5.2023 -1.5015 0.0 0
M  V30 13 C -2.6011 -6.0062 0.0 0
M  V30 14 C -3.9017 -3.7598 0.0 0
M  V30 15 C -6.5028 -2.2464 0.0 0
M  V30 END ATOM
M  V30 BEGIN BOND
M  V30 1 2 1 2
M  V30 2 1 2 3
M  V30 3 1 2 4
M  V30 4 1 3 5
M  V30 5 1 4 6
M  V30 6 1 4 7
M  V30 7 1 5 8
M  V30 8 2 6 9
M  V30 9 1 6 10
M  V30 10 1 7 11
M  V30 11 1 10 12
M  V30 12 1 11 13
M  V30 13 1 11 14
M  V30 14 1 12 15
M  V30 END BOND
M  V30 END CTAB
M  END
>  <Molecule Name>
iso-Butylmalonic acid, diethyl ester

>  <Activity Label>
0

>  <SMILES>
CCOC(C(CC(C)C)C(OCC)=O)=O

>  <Molecular Formula>
C11H20O4

>  <InChIKey>
OFRFGNSZCYDFOH-UHFFFAOYSA-N

>  <Repellency>
Inactive

>  <Reference DOI>
10.3390/toxics11100837

>  <Target Organism>
Not applied

$$$$
Compound 577
Actelion Java MolfileCreator 2.0

  0  0  0  0  0  0              0 V3000
M  V30 BEGIN CTAB
M  V30 COUNTS 15 14 0 0 0
M  V30 BEGIN ATOM
M  V30 1 O 0.0 0.0 0.0 0
M  V30 2 C 0.0 -1.5 0.0 0
M  V30 3 O 1.2992 -2.256 0.0 0
M  V30 4 C -1.2992 -2.256 0.0 0
M  V30 5 C 2.5985 -1.5118 0.0 0
M  V30 6 C -2.5985 -1.5118 0.0 0
M  V30 7 C -1.2992 -3.7561 0.0 0
M  V30 8 C 3.8978 -2.2678 0.0 0
M  V30 9 O -2.5985 -0.0118 0.0 0
M  V30 10 O -3.8978 -2.2678 0.0 0
M  V30 11 C 0.0 -4.5002 0.0 0
M  V30 12 C -2.5985 -4.5002 0.0 0
M  V30 13 C -5.1971 -1.5237 0.0 0
M  V30 14 C 1.2992 -3.7561 0.0 0
M  V30 15 C -6.4964 -2.2796 0.0 0
M  V30 END ATOM
M  V30 BEGIN BOND
M  V30 1 2 1 2
M  V30 2 1 2 3
M  V30 3 1 2 4
M  V30 4 1 3 5
M  V30 5 1 4 6
M  V30 6 1 4 7
M  V30 7 1 5 8
M  V30 8 2 6 9
M  V30 9 1 6 10
M  V30 10 2 7 11 CFG=2
M  V30 11 1 7 12
M  V30 12 1 10 13
M  V30 13 1 11 14
M  V30 14 1 13 15
M  V30 END BOND
M  V30 END CTAB
M  END
>  <Molecule Name>
(1-Methyl-1-propenyl)malonic acid, diethyl ester

>  <Activity Label>
0

>  <SMILES>
CCOC(C(C(C)=CC)C(OCC)=O)=O

>  <Molecular Formula>
C11H18O4

>  <InChIKey>
PEOYDDSUGYIYGS-UHFFFAOYSA-N

>  <Repellency>
Inactive

>  <Reference DOI>
10.3390/toxics11100837

>  <Target Organism>
Not applied

$$$$
Compound 578
Actelion Java MolfileCreator 2.0

  0  0  0  0  0  0              0 V3000
M  V30 BEGIN CTAB
M  V30 COUNTS 15 14 0 0 0
M  V30 BEGIN ATOM
M  V30 1 O 0.0 0.0 0.0 0
M  V30 2 C 0.0 -1.4994 0.0 0
M  V30 3 O 1.2987 -2.2551 0.0 0
M  V30 4 C -1.2987 -2.2551 0.0 0
M  V30 5 C 2.5975 -1.5112 0.0 0
M  V30 6 C -2.5975 -1.5112 0.0 0
M  V30 7 C -1.2987 -3.7546 0.0 0
M  V30 8 C 3.8963 -2.2669 0.0 0
M  V30 9 O -2.5975 -0.0118 0.0 0
M  V30 10 O -3.8963 -2.2669 0.0 0
M  V30 11 C 0.2007 -3.7546 0.0 0
M  V30 12 C -1.2987 -5.2541 0.0 0
M  V30 13 C -2.7982 -3.7546 0.0 0
M  V30 14 C -5.195 -1.5231 0.0 0
M  V30 15 C -6.4938 -2.2787 0.0 0
M  V30 END ATOM
M  V30 BEGIN BOND
M  V30 1 2 1 2
M  V30 2 1 2 3
M  V30 3 1 2 4
M  V30 4 1 3 5
M  V30 5 1 4 6
M  V30 6 1 4 7
M  V30 7 1 5 8
M  V30 8 2 6 9
M  V30 9 1 6 10
M  V30 10 1 7 11
M  V30 11 1 7 12
M  V30 12 1 7 13
M  V30 13 1 10 14
M  V30 14 1 14 15
M  V30 END BOND
M  V30 END CTAB
M  END
>  <Molecule Name>
tert-Butylmalonic acid, diethyl ester

>  <Activity Label>
0

>  <SMILES>
CCOC(C(C(C)(C)C)C(OCC)=O)=O

>  <Molecular Formula>
C11H20O4

>  <InChIKey>
RJNICNBRGVKNSR-UHFFFAOYSA-N

>  <Repellency>
Inactive

>  <Reference DOI>
10.3390/toxics11100837

>  <Target Organism>
Not applied

$$$$
Compound 579
Actelion Java MolfileCreator 2.0

  0  0  0  0  0  0              0 V3000
M  V30 BEGIN CTAB
M  V30 COUNTS 15 14 0 0 0
M  V30 BEGIN ATOM
M  V30 1 O 0.0 0.0 0.0 0
M  V30 2 C 0.0 1.4998 0.0 0
M  V30 3 O 1.299 2.2438 0.0 0
M  V30 4 C -1.299 2.2438 0.0 0
M  V30 5 C 2.5981 1.488 0.0 0
M  V30 6 C -2.5981 1.488 0.0 0
M  V30 7 C 3.8972 2.232 0.0 0
M  V30 8 C -3.8972 2.232 0.0 0
M  V30 9 C 5.1963 1.4762 0.0 0
M  V30 10 C -5.1963 1.4762 0.0 0
M  V30 11 O -5.1963 -0.0236 0.0 0
M  V30 12 O -6.4954 2.2202 0.0 0
M  V30 13 C -7.7945 1.4644 0.0 0
M  V30 14 C -9.0936 2.2084 0.0 0
M  V30 15 C -10.3927 1.4526 0.0 0
M  V30 END ATOM
M  V30 BEGIN BOND
M  V30 1 2 1 2
M  V30 2 1 2 3
M  V30 3 1 2 4
M  V30 4 1 3 5
M  V30 5 1 4 6
M  V30 6 1 5 7
M  V30 7 1 6 8
M  V30 8 1 7 9
M  V30 9 1 8 10
M  V30 10 2 10 11
M  V30 11 1 10 12
M  V30 12 1 12 13
M  V30 13 1 13 14
M  V30 14 1 14 15
M  V30 END BOND
M  V30 END CTAB
M  END
>  <Molecule Name>
Glutaric acid, di-n-propyl ester

>  <Activity Label>
0

>  <SMILES>
CCCOC(CCCC(OCCC)=O)=O

>  <Molecular Formula>
C11H20O4

>  <InChIKey>
IXAVSISAEGUDSL-UHFFFAOYSA-N

>  <Repellency>
Inactive

>  <Reference DOI>
10.3390/toxics11100837

>  <Target Organism>
Not applied

$$$$
Compound 580
Actelion Java MolfileCreator 2.0

  0  0  0  0  0  0              0 V3000
M  V30 BEGIN CTAB
M  V30 COUNTS 15 14 0 0 0
M  V30 BEGIN ATOM
M  V30 1 O 0.0 0.0 0.0 0
M  V30 2 C 0.0 1.4998 0.0 0
M  V30 3 O -1.2991 2.2439 0.0 0
M  V30 4 C 1.2991 2.2439 0.0 0
M  V30 5 C -2.5982 1.488 0.0 0 CFG=2
M  V30 6 C 2.5982 1.488 0.0 0
M  V30 7 C 1.2991 3.7438 0.0 0
M  V30 8 C -3.8973 2.2321 0.0 0
M  V30 9 C -2.5982 -0.0118 0.0 0
M  V30 10 O -3.8973 3.7319 0.0 0
M  V30 11 O -5.1964 1.4762 0.0 0
M  V30 12 C -6.4955 2.2203 0.0 0
M  V30 13 C -7.7946 1.4644 0.0 0
M  V30 14 C -9.0937 2.2084 0.0 0
M  V30 15 C -10.3929 1.4526 0.0 0
M  V30 END ATOM
M  V30 BEGIN BOND
M  V30 1 2 1 2
M  V30 2 1 2 3
M  V30 3 1 2 4
M  V30 4 1 3 5
M  V30 5 2 4 6
M  V30 6 1 4 7
M  V30 7 1 5 8
M  V30 8 1 5 9 CFG=1
M  V30 9 2 8 10
M  V30 10 1 8 11
M  V30 11 1 11 12
M  V30 12 1 12 13
M  V30 13 1 13 14
M  V30 14 1 14 15
M  V30 END BOND
M  V30 BEGIN COLLECTION
M  V30 MDLV30/STERAC1 ATOMS=(1 5)
M  V30 END COLLECTION
M  V30 END CTAB
M  END
>  <Molecule Name>
alpha-Methacryloxypropionic acid, n-butyl ester

>  <Activity Label>
0

>  <SMILES>
CCCCOC(C(C)OC(C(C)=C)=O)=O

>  <Molecular Formula>
C11H18O4

>  <InChIKey>
TYQIODLRCWFPGF-UHFFFAOYSA-N

>  <Repellency>
Inactive

>  <Reference DOI>
10.3390/toxics11100837

>  <Target Organism>
Not applied

$$$$
Compound 581
Actelion Java MolfileCreator 2.0

  0  0  0  0  0  0              0 V3000
M  V30 BEGIN CTAB
M  V30 COUNTS 15 14 0 0 0
M  V30 BEGIN ATOM
M  V30 1 O 0.0 0.0 0.0 0
M  V30 2 C -1.3128 0.7519 0.0 0
M  V30 3 O -1.3128 2.2676 0.0 0
M  V30 4 C -2.6257 -0.0119 0.0 0
M  V30 5 C 0.0 3.0315 0.0 0
M  V30 6 C -3.9385 0.7399 0.0 0
M  V30 7 C -2.6257 -1.5276 0.0 0
M  V30 8 C -2.6257 1.5038 0.0 0
M  V30 9 C 0.0 4.5472 0.0 0
M  V30 10 O -4.1056 2.1602 0.0 0
M  V30 11 O -5.2514 -0.0238 0.0 0
M  V30 12 C -3.9385 -2.2915 0.0 0
M  V30 13 C -3.6163 2.4466 0.0 0
M  V30 14 C -6.5643 0.7399 0.0 0
M  V30 15 C -7.8771 -0.0238 0.0 0
M  V30 END ATOM
M  V30 BEGIN BOND
M  V30 1 2 1 2
M  V30 2 1 2 3
M  V30 3 1 2 4
M  V30 4 1 3 5
M  V30 5 1 4 6
M  V30 6 1 4 7
M  V30 7 1 4 8
M  V30 8 1 5 9
M  V30 9 2 6 10
M  V30 10 1 6 11
M  V30 11 1 7 12
M  V30 12 1 8 13
M  V30 13 1 11 14
M  V30 14 1 14 15
M  V30 END BOND
M  V30 END CTAB
M  END
>  <Molecule Name>
Diethylmalonic acid, diethyl ester

>  <Activity Label>
0

>  <SMILES>
CCC(CC)(C(OCC)=O)C(OCC)=O

>  <Molecular Formula>
C11H20O4

>  <InChIKey>
ZKBBUZRGPULIRN-UHFFFAOYSA-N

>  <Repellency>
Inactive

>  <Reference DOI>
10.3390/toxics11100837

>  <Target Organism>
Not applied

$$$$
Compound 582
Actelion Java MolfileCreator 2.0

  0  0  0  0  0  0              0 V3000
M  V30 BEGIN CTAB
M  V30 COUNTS 15 14 0 0 0
M  V30 BEGIN ATOM
M  V30 1 O 0.0 0.0 0.0 0
M  V30 2 C 0.0 -1.4994 0.0 0
M  V30 3 O 1.2987 -2.255 0.0 0
M  V30 4 C -1.2987 -2.255 0.0 0
M  V30 5 C 2.5974 -1.5112 0.0 0
M  V30 6 C -2.5974 -1.5112 0.0 0
M  V30 7 C 3.8961 -2.2668 0.0 0
M  V30 8 O -2.5974 -0.0118 0.0 0
M  V30 9 O -3.8961 -2.2668 0.0 0
M  V30 10 C 5.1949 -1.523 0.0 0
M  V30 11 C -5.1949 -1.523 0.0 0
M  V30 12 C 6.4936 -2.2786 0.0 0
M  V30 13 C -6.4936 -2.2786 0.0 0
M  V30 14 C -7.7923 -1.5348 0.0 0
M  V30 15 C -9.0911 -2.2904 0.0 0
M  V30 END ATOM
M  V30 BEGIN BOND
M  V30 1 2 1 2
M  V30 2 1 2 3
M  V30 3 1 2 4
M  V30 4 1 3 5
M  V30 5 1 4 6
M  V30 6 1 5 7
M  V30 7 2 6 8
M  V30 8 1 6 9
M  V30 9 1 7 10
M  V30 10 1 9 11
M  V30 11 1 10 12
M  V30 12 1 11 13
M  V30 13 1 13 14
M  V30 14 1 14 15
M  V30 END BOND
M  V30 END CTAB
M  END
>  <Molecule Name>
Malonic acid, di-n-butyl ester

>  <Activity Label>
0

>  <SMILES>
CCCCOC(CC(OCCCC)=O)=O

>  <Molecular Formula>
C11H20O4

>  <InChIKey>
NFKGQHYUYGYHIS-UHFFFAOYSA-N

>  <Repellency>
Inactive

>  <Reference DOI>
10.3390/toxics11100837

>  <Target Organism>
Not applied

$$$$
Compound 583
Actelion Java MolfileCreator 2.0

  0  0  0  0  0  0              0 V3000
M  V30 BEGIN CTAB
M  V30 COUNTS 15 14 0 0 0
M  V30 BEGIN ATOM
M  V30 1 O 0.0 0.0 0.0 0
M  V30 2 C -1.3004 0.7475 0.0 0
M  V30 3 O -2.6009 0.0 0.0 0
M  V30 4 C -3.9014 0.7475 0.0 0
M  V30 5 C -5.2018 0.0 0.0 0
M  V30 6 C -6.5023 0.7475 0.0 0
M  V30 7 C -7.8028 0.0 0.0 0
M  V30 8 C -9.1032 0.7475 0.0 0
M  V30 9 C -10.4037 0.0 0.0 0
M  V30 10 C -11.7042 0.7475 0.0 0
M  V30 11 C -13.0047 0.0 0.0 0
M  V30 12 C -14.3051 0.7475 0.0 0
M  V30 13 C -15.6056 0.0 0.0 0
M  V30 14 C -16.9061 0.7475 0.0 0
M  V30 15 C -18.2065 0.0 0.0 0
M  V30 END ATOM
M  V30 BEGIN BOND
M  V30 1 2 1 2
M  V30 2 1 2 3
M  V30 3 1 3 4
M  V30 4 1 4 5
M  V30 5 1 5 6
M  V30 6 1 6 7
M  V30 7 1 7 8
M  V30 8 1 8 9
M  V30 9 1 9 10
M  V30 10 1 10 11
M  V30 11 1 11 12
M  V30 12 1 12 13
M  V30 13 1 13 14
M  V30 14 1 14 15
M  V30 END BOND
M  V30 END CTAB
M  END
>  <Molecule Name>
Formic acid, lauryl ester

>  <Activity Label>
0

>  <SMILES>
CCCCCCCCCCCCOC=O

>  <Molecular Formula>
C13H26O2

>  <InChIKey>
WPSGFSPBRBRLIQ-UHFFFAOYSA-N

>  <Repellency>
Inactive

>  <Reference DOI>
10.3390/toxics11100837

>  <Target Organism>
Not applied

$$$$
Compound 584
Actelion Java MolfileCreator 2.0

  0  0  0  0  0  0              0 V3000
M  V30 BEGIN CTAB
M  V30 COUNTS 15 14 0 0 0
M  V30 BEGIN ATOM
M  V30 1 O 0.0 0.0 0.0 0
M  V30 2 C 0.0 -1.4996 0.0 0
M  V30 3 O -1.2989 -2.2553 0.0 0
M  V30 4 C 1.2989 -2.2553 0.0 0
M  V30 5 C -2.5978 -1.5114 0.0 0
M  V30 6 C 2.5978 -1.5114 0.0 0
M  V30 7 C -3.8967 -2.2671 0.0 0
M  V30 8 C 3.8967 -2.2671 0.0 0
M  V30 9 C 5.1956 -1.5232 0.0 0
M  V30 10 C 6.4945 -2.2789 0.0 0
M  V30 11 C 7.7934 -1.535 0.0 0
M  V30 12 C 9.0923 -2.2907 0.0 0
M  V30 13 C 10.3912 -1.5468 0.0 0
M  V30 14 C 11.6901 -2.3025 0.0 0
M  V30 15 C 12.989 -1.5586 0.0 0
M  V30 END ATOM
M  V30 BEGIN BOND
M  V30 1 2 1 2
M  V30 2 1 2 3
M  V30 3 1 2 4
M  V30 4 1 3 5
M  V30 5 1 4 6
M  V30 6 1 5 7
M  V30 7 1 6 8
M  V30 8 1 8 9
M  V30 9 1 9 10
M  V30 10 1 10 11
M  V30 11 1 11 12
M  V30 12 1 12 13
M  V30 13 1 13 14
M  V30 14 2 14 15
M  V30 END BOND
M  V30 END CTAB
M  END
>  <Molecule Name>
Undecylenic acid, ethyl ester

>  <Activity Label>
0

>  <SMILES>
CCOC(CCCCCCCCC=C)=O

>  <Molecular Formula>
C13H24O2

>  <InChIKey>
FXNFFCMITPHEIT-UHFFFAOYSA-N

>  <Repellency>
Inactive

>  <Reference DOI>
10.3390/toxics11100837

>  <Target Organism>
Not applied

$$$$
Compound 585
Actelion Java MolfileCreator 2.0

  0  0  0  0  0  0              0 V3000
M  V30 BEGIN CTAB
M  V30 COUNTS 15 14 0 0 0
M  V30 BEGIN ATOM
M  V30 1 O 0.0 0.0 0.0 0
M  V30 2 C 0.0 -1.4996 0.0 0
M  V30 3 O -1.2989 -2.2553 0.0 0
M  V30 4 C 1.2989 -2.2553 0.0 0
M  V30 5 C -2.5978 -1.5114 0.0 0
M  V30 6 C 2.5978 -1.5114 0.0 0
M  V30 7 C -3.8967 -2.2671 0.0 0
M  V30 8 C 3.8967 -2.2671 0.0 0
M  V30 9 C 5.1956 -1.5232 0.0 0
M  V30 10 C 6.4945 -2.2789 0.0 0
M  V30 11 C 7.7934 -1.535 0.0 0
M  V30 12 C 9.0923 -2.2907 0.0 0
M  V30 13 C 10.3912 -1.5468 0.0 0
M  V30 14 C 11.6901 -2.3025 0.0 0
M  V30 15 C 12.989 -1.5586 0.0 0
M  V30 END ATOM
M  V30 BEGIN BOND
M  V30 1 2 1 2
M  V30 2 1 2 3
M  V30 3 1 2 4
M  V30 4 1 3 5
M  V30 5 1 4 6
M  V30 6 1 5 7
M  V30 7 1 6 8
M  V30 8 1 8 9
M  V30 9 1 9 10
M  V30 10 1 10 11
M  V30 11 1 11 12
M  V30 12 1 12 13
M  V30 13 1 13 14
M  V30 14 1 14 15
M  V30 END BOND
M  V30 END CTAB
M  END
>  <Molecule Name>
Undecylic acid, ethyl ester

>  <Activity Label>
0

>  <SMILES>
CCCCCCCCCCC(OCC)=O

>  <Molecular Formula>
C13H26O2

>  <InChIKey>
IAFQYUQIAOWKSB-UHFFFAOYSA-N

>  <Repellency>
Inactive

>  <Reference DOI>
10.3390/toxics11100837

>  <Target Organism>
Not applied

$$$$
Compound 586
Actelion Java MolfileCreator 2.0

  0  0  0  0  0  0              0 V3000
M  V30 BEGIN CTAB
M  V30 COUNTS 15 14 0 0 0
M  V30 BEGIN ATOM
M  V30 1 O 0.0 0.0 0.0 0
M  V30 2 C 0.0 -1.4994 0.0 0
M  V30 3 O -1.2987 -2.255 0.0 0
M  V30 4 C 1.2987 -2.255 0.0 0
M  V30 5 C -2.5974 -1.5112 0.0 0 CFG=2
M  V30 6 C 2.5974 -1.5112 0.0 0
M  V30 7 C -3.8961 -2.2668 0.0 0
M  V30 8 C -2.5974 -0.0118 0.0 0
M  V30 9 C 3.8961 -2.2668 0.0 0
M  V30 10 C -5.1949 -1.523 0.0 0
M  V30 11 C 5.1949 -1.523 0.0 0
M  V30 12 C -6.4936 -2.2786 0.0 0
M  V30 13 C 6.4936 -2.2786 0.0 0
M  V30 14 C -7.7923 -1.5348 0.0 0
M  V30 15 C -9.0911 -2.2904 0.0 0
M  V30 END ATOM
M  V30 BEGIN BOND
M  V30 1 2 1 2
M  V30 2 1 2 3
M  V30 3 1 2 4
M  V30 4 1 3 5
M  V30 5 1 4 6
M  V30 6 1 5 7
M  V30 7 1 5 8 CFG=3
M  V30 8 1 6 9
M  V30 9 1 7 10
M  V30 10 1 9 11
M  V30 11 1 10 12
M  V30 12 1 11 13
M  V30 13 1 12 14
M  V30 14 1 14 15
M  V30 END BOND
M  V30 BEGIN COLLECTION
M  V30 MDLV30/STERAC1 ATOMS=(1 5)
M  V30 END COLLECTION
M  V30 END CTAB
M  END
>  <Molecule Name>
Caproic acid, 2-heptyl ester

>  <Activity Label>
0

>  <SMILES>
CCCCCC(C)OC(CCCCC)=O

>  <Molecular Formula>
C13H26O2

>  <InChIKey>
PPQPRIGCIRJGJH-UHFFFAOYSA-N

>  <Repellency>
Inactive

>  <Reference DOI>
10.3390/toxics11100837

>  <Target Organism>
Not applied

$$$$
Compound 587
Actelion Java MolfileCreator 2.0

  0  0  0  0  0  0              0 V3000
M  V30 BEGIN CTAB
M  V30 COUNTS 15 14 0 0 0
M  V30 BEGIN ATOM
M  V30 1 O 0.0 0.0 0.0 0
M  V30 2 C 0.0 -1.4996 0.0 0
M  V30 3 O -1.2989 -2.2553 0.0 0
M  V30 4 C 1.2989 -2.2553 0.0 0
M  V30 5 C -2.5978 -1.5114 0.0 0
M  V30 6 C 2.5978 -1.5114 0.0 0
M  V30 7 C -3.8967 -2.2672 0.0 0
M  V30 8 C -5.1956 -1.5232 0.0 0
M  V30 9 C -6.4946 -2.279 0.0 0
M  V30 10 C -5.1956 -0.0236 0.0 0
M  V30 11 C -7.7935 -1.535 0.0 0
M  V30 12 C -9.0924 -2.2908 0.0 0
M  V30 13 C -10.3913 -1.5468 0.0 0
M  V30 14 C -11.6902 -2.3026 0.0 0
M  V30 15 C -10.3913 -0.0472 0.0 0
M  V30 END ATOM
M  V30 BEGIN BOND
M  V30 1 2 1 2
M  V30 2 1 2 3
M  V30 3 1 2 4
M  V30 4 1 3 5
M  V30 5 2 4 6
M  V30 6 1 5 7
M  V30 7 2 7 8
M  V30 8 1 8 9
M  V30 9 1 8 10
M  V30 10 1 9 11
M  V30 11 1 11 12
M  V30 12 2 12 13
M  V30 13 1 13 14
M  V30 14 1 13 15
M  V30 END BOND
M  V30 END CTAB
M  END
>  <Molecule Name>
Acrylic acid, geranyl ester

>  <Activity Label>
0

>  <SMILES>
CC(C)=CCC/C(\C)=C/COC(C=C)=O

>  <Molecular Formula>
C13H20O2

>  <InChIKey>
AATNDERPTPBKQK-FMIVXFBMSA-N

>  <Repellency>
Inactive

>  <Reference DOI>
10.3390/toxics11100837

>  <Target Organism>
Not applied

$$$$
Compound 588
Actelion Java MolfileCreator 2.0

  0  0  0  0  0  0              0 V3000
M  V30 BEGIN CTAB
M  V30 COUNTS 15 14 0 0 0
M  V30 BEGIN ATOM
M  V30 1 O 0.0 0.0 0.0 0
M  V30 2 C 0.0 1.5 0.0 0
M  V30 3 O -1.2992 2.2441 0.0 0
M  V30 4 C 1.2992 2.2441 0.0 0
M  V30 5 C -2.5985 1.4882 0.0 0
M  V30 6 C 2.5985 1.4882 0.0 0
M  V30 7 C 3.8978 2.2323 0.0 0
M  V30 8 C 5.197 1.4764 0.0 0
M  V30 9 C 6.4963 2.2205 0.0 0
M  V30 10 C 7.7956 1.4646 0.0 0
M  V30 11 C 9.0948 2.2087 0.0 0
M  V30 12 C 10.3941 1.4528 0.0 0
M  V30 13 C 11.6934 2.1969 0.0 0
M  V30 14 C 12.9926 1.441 0.0 0
M  V30 15 C 14.2919 2.1851 0.0 0
M  V30 END ATOM
M  V30 BEGIN BOND
M  V30 1 2 1 2
M  V30 2 1 2 3
M  V30 3 1 2 4
M  V30 4 1 3 5
M  V30 5 1 4 6
M  V30 6 1 6 7
M  V30 7 1 7 8
M  V30 8 1 8 9
M  V30 9 1 9 10
M  V30 10 1 10 11
M  V30 11 1 11 12
M  V30 12 1 12 13
M  V30 13 1 13 14
M  V30 14 1 14 15
M  V30 END BOND
M  V30 END CTAB
M  END
>  <Molecule Name>
Lauric acid, methyl ester

>  <Activity Label>
0

>  <SMILES>
CCCCCCCCCCCC(OC)=O

>  <Molecular Formula>
C13H26O2

>  <InChIKey>
UQDUPQYQJKYHQI-UHFFFAOYSA-N

>  <Repellency>
Inactive

>  <Reference DOI>
10.3390/toxics11100837

>  <Target Organism>
Not applied

$$$$
Compound 589
Actelion Java MolfileCreator 2.0

  0  0  0  0  0  0              0 V3000
M  V30 BEGIN CTAB
M  V30 COUNTS 15 14 0 0 0
M  V30 BEGIN ATOM
M  V30 1 O 0.0 0.0 0.0 0
M  V30 2 C 0.0 1.5025 0.0 0
M  V30 3 O -1.3014 2.2479 0.0 0
M  V30 4 C 1.3014 2.2479 0.0 0
M  V30 5 C -2.6029 1.5025 0.0 0
M  V30 6 C -3.9043 2.2479 0.0 0
M  V30 7 C -5.2058 1.5025 0.0 0
M  V30 8 C -6.5073 2.2479 0.0 0
M  V30 9 C -7.8087 1.5025 0.0 0
M  V30 10 C -9.1102 2.2479 0.0 0
M  V30 11 C -10.4117 1.5025 0.0 0
M  V30 12 C -11.7131 2.2479 0.0 0
M  V30 13 C -13.0146 1.5025 0.0 0
M  V30 14 C -14.316 2.2479 0.0 0
M  V30 15 C -15.6175 1.5025 0.0 0
M  V30 END ATOM
M  V30 BEGIN BOND
M  V30 1 2 1 2
M  V30 2 1 2 3
M  V30 3 1 2 4
M  V30 4 1 3 5
M  V30 5 1 5 6
M  V30 6 1 6 7
M  V30 7 1 7 8
M  V30 8 1 8 9
M  V30 9 1 9 10
M  V30 10 1 10 11
M  V30 11 1 11 12
M  V30 12 1 12 13
M  V30 13 1 13 14
M  V30 14 2 14 15
M  V30 END BOND
M  V30 END CTAB
M  END
>  <Molecule Name>
Acetic acid, undecylenyl ester

>  <Activity Label>
0

>  <SMILES>
CC(OCCCCCCCCCC=C)=O

>  <Molecular Formula>
C13H24O2

>  <InChIKey>
VCVAXEYHJAFRGM-UHFFFAOYSA-N

>  <Repellency>
Inactive

>  <Reference DOI>
10.3390/toxics11100837

>  <Target Organism>
Not applied

$$$$
Compound 590
Actelion Java MolfileCreator 2.0

  0  0  0  0  0  0              0 V3000
M  V30 BEGIN CTAB
M  V30 COUNTS 15 14 0 0 0
M  V30 BEGIN ATOM
M  V30 1 Cl 0.0 0.0 0.0 0
M  V30 2 C 1.299 0.744 0.0 0
M  V30 3 C 1.299 2.2438 0.0 0
M  V30 4 C 2.5981 -0.0118 0.0 0
M  V30 5 O 3.8972 0.7322 0.0 0
M  V30 6 C 5.1963 -0.0236 0.0 0
M  V30 7 O 5.1963 -1.5234 0.0 0
M  V30 8 C 6.4954 0.7204 0.0 0
M  V30 9 C 7.7945 -0.0354 0.0 0
M  V30 10 C 9.0936 0.7085 0.0 0
M  V30 11 C 10.3927 -0.0472 0.0 0
M  V30 12 C 11.6918 0.6967 0.0 0
M  V30 13 C 12.9909 -0.059 0.0 0
M  V30 14 C 14.29 0.6849 0.0 0
M  V30 15 C 15.5891 -0.0708 0.0 0
M  V30 END ATOM
M  V30 BEGIN BOND
M  V30 1 1 1 2
M  V30 2 2 2 3
M  V30 3 1 2 4
M  V30 4 1 4 5
M  V30 5 1 5 6
M  V30 6 2 6 7
M  V30 7 1 6 8
M  V30 8 1 8 9
M  V30 9 1 9 10
M  V30 10 1 10 11
M  V30 11 1 11 12
M  V30 12 1 12 13
M  V30 13 1 13 14
M  V30 14 1 14 15
M  V30 END BOND
M  V30 END CTAB
M  END
>  <Molecule Name>
Pelargonic acid, beta-chloro-allyl ester

>  <Activity Label>
0

>  <SMILES>
CCCCCCCCC(OCC(Cl)=C)=O

>  <Molecular Formula>
C12H21O2Cl

>  <InChIKey>
VCPKXYADDPBHNJ-UHFFFAOYSA-N

>  <Repellency>
Inactive

>  <Reference DOI>
10.3390/toxics11100837

>  <Target Organism>
Not applied

$$$$
Compound 591
Actelion Java MolfileCreator 2.0

  0  0  0  0  0  0              0 V3000
M  V30 BEGIN CTAB
M  V30 COUNTS 15 14 0 0 0
M  V30 BEGIN ATOM
M  V30 1 O 0.0 0.0 0.0 0
M  V30 2 C 0.0 1.5 0.0 0
M  V30 3 C 1.2992 2.2441 0.0 0
M  V30 4 C -1.2992 2.2441 0.0 0
M  V30 5 C 2.5985 1.4882 0.0 0
M  V30 6 C -2.5985 1.4882 0.0 0
M  V30 7 C 3.8978 2.2323 0.0 0
M  V30 8 C 5.197 1.4764 0.0 0
M  V30 9 C 6.4963 2.2205 0.0 0
M  V30 10 C 7.7956 1.4646 0.0 0
M  V30 11 C 9.0948 2.2087 0.0 0
M  V30 12 C 10.3941 1.4528 0.0 0
M  V30 13 C 11.6934 2.1969 0.0 0
M  V30 14 C 12.9926 1.441 0.0 0
M  V30 15 C 14.2919 2.1851 0.0 0
M  V30 END ATOM
M  V30 BEGIN BOND
M  V30 1 2 1 2
M  V30 2 1 2 3
M  V30 3 1 2 4
M  V30 4 1 3 5
M  V30 5 1 4 6
M  V30 6 1 5 7
M  V30 7 1 7 8
M  V30 8 1 8 9
M  V30 9 1 9 10
M  V30 10 1 10 11
M  V30 11 1 11 12
M  V30 12 1 12 13
M  V30 13 1 13 14
M  V30 14 1 14 15
M  V30 END BOND
M  V30 END CTAB
M  END
>  <Molecule Name>
Ethyl undecyl ketone

>  <Activity Label>
0

>  <SMILES>
CCCCCCCCCCCC(CC)=O

>  <Molecular Formula>
C14H28O

>  <InChIKey>
OCHYRSKMMMYUMI-UHFFFAOYSA-N

>  <Repellency>
Inactive

>  <Reference DOI>
10.3390/toxics11100837

>  <Target Organism>
Not applied

$$$$
Compound 592
Actelion Java MolfileCreator 2.0

  0  0  0  0  0  0              0 V3000
M  V30 BEGIN CTAB
M  V30 COUNTS 15 14 0 0 0
M  V30 BEGIN ATOM
M  V30 1 O 0.0 0.0 0.0 0
M  V30 2 C -1.3004 0.7475 0.0 0
M  V30 3 C 1.3004 0.7475 0.0 0
M  V30 4 C -2.6009 0.0 0.0 0
M  V30 5 C 2.6009 0.0 0.0 0
M  V30 6 C -3.9014 0.7475 0.0 0
M  V30 7 C -5.2018 0.0 0.0 0
M  V30 8 C -6.5023 0.7475 0.0 0
M  V30 9 C -7.8028 0.0 0.0 0
M  V30 10 C -9.1032 0.7475 0.0 0
M  V30 11 C -10.4037 0.0 0.0 0
M  V30 12 C -11.7042 0.7475 0.0 0
M  V30 13 C -13.0047 0.0 0.0 0
M  V30 14 C -14.3051 0.7475 0.0 0
M  V30 15 C -15.6056 0.0 0.0 0
M  V30 END ATOM
M  V30 BEGIN BOND
M  V30 1 1 1 2
M  V30 2 1 1 3
M  V30 3 1 2 4
M  V30 4 1 3 5
M  V30 5 1 4 6
M  V30 6 1 6 7
M  V30 7 1 7 8
M  V30 8 1 8 9
M  V30 9 1 9 10
M  V30 10 1 10 11
M  V30 11 1 11 12
M  V30 12 1 12 13
M  V30 13 1 13 14
M  V30 14 1 14 15
M  V30 END BOND
M  V30 END CTAB
M  END
>  <Molecule Name>
Dodecyl ethyl ether

>  <Activity Label>
0

>  <SMILES>
CCCCCCCCCCCCOCC

>  <Molecular Formula>
C14H30O

>  <InChIKey>
HAOXTAJLDMZCQJ-UHFFFAOYSA-N

>  <Repellency>
Inactive

>  <Reference DOI>
10.3390/toxics11100837

>  <Target Organism>
Not applied

$$$$
Compound 593
Actelion Java MolfileCreator 2.0

  0  0  0  0  0  0              0 V3000
M  V30 BEGIN CTAB
M  V30 COUNTS 15 14 0 0 0
M  V30 BEGIN ATOM
M  V30 1 O 0.0 0.0 0.0 0
M  V30 2 C -1.2989 -0.7557 0.0 0
M  V30 3 C -2.5978 -0.0118 0.0 0
M  V30 4 C -3.8967 -0.7675 0.0 0
M  V30 5 C -5.1956 -0.0236 0.0 0
M  V30 6 C -6.4946 -0.7793 0.0 0
M  V30 7 C -5.1956 1.476 0.0 0
M  V30 8 C -7.7935 -0.0354 0.0 0
M  V30 9 C -6.4946 -2.279 0.0 0
M  V30 10 C -3.8967 2.2199 0.0 0
M  V30 11 C -9.0924 -0.7911 0.0 0
M  V30 12 C -7.7935 -3.0347 0.0 0
M  V30 13 C -3.8967 3.7196 0.0 0
M  V30 14 C -10.3913 -0.0472 0.0 0
M  V30 15 C -11.6902 -0.8029 0.0 0
M  V30 END ATOM
M  V30 BEGIN BOND
M  V30 1 1 1 2
M  V30 2 1 2 3
M  V30 3 1 3 4
M  V30 4 1 4 5
M  V30 5 1 5 6
M  V30 6 1 5 7
M  V30 7 1 6 8
M  V30 8 1 6 9
M  V30 9 1 7 10
M  V30 10 1 8 11
M  V30 11 1 9 12
M  V30 12 1 10 13
M  V30 13 1 11 14
M  V30 14 1 14 15
M  V30 END BOND
M  V30 END CTAB
M  END
>  <Molecule Name>
5-Ethyl-4-propylnonanol

>  <Activity Label>
0

>  <SMILES>
CCCCC(CC)C(CCC)CCCO

>  <Molecular Formula>
C14H30O

>  <InChIKey>
CQCSWVUCOYNDEL-UHFFFAOYSA-N

>  <Repellency>
Inactive

>  <Reference DOI>
10.3390/toxics11100837

>  <Target Organism>
Not applied

$$$$
Compound 594
Actelion Java MolfileCreator 2.0

  0  0  0  0  0  0              0 V3000
M  V30 BEGIN CTAB
M  V30 COUNTS 15 14 0 0 0
M  V30 BEGIN ATOM
M  V30 1 O 0.0 0.0 0.0 0
M  V30 2 C 0.0 -1.5015 0.0 0
M  V30 3 O 1.3005 -2.2464 0.0 0
M  V30 4 C -1.3005 -2.2464 0.0 0
M  V30 5 C 2.6011 -1.5015 0.0 0
M  V30 6 C -2.6011 -1.5015 0.0 0
M  V30 7 C -1.3005 -3.748 0.0 0 CFG=1
M  V30 8 C 3.9017 -2.2464 0.0 0
M  V30 9 O -2.6011 0.0 0.0 0
M  V30 10 O -3.9017 -2.2464 0.0 0
M  V30 11 O -2.6011 -4.5047 0.0 0
M  V30 12 C 0.0 -4.4929 0.0 0
M  V30 13 C -5.2023 -1.5015 0.0 0
M  V30 14 C -2.6011 -6.0062 0.0 0
M  V30 15 C -6.5028 -2.2464 0.0 0
M  V30 END ATOM
M  V30 BEGIN BOND
M  V30 1 2 1 2
M  V30 2 1 2 3
M  V30 3 1 2 4
M  V30 4 1 3 5
M  V30 5 1 4 6
M  V30 6 1 4 7
M  V30 7 1 5 8
M  V30 8 2 6 9
M  V30 9 1 6 10
M  V30 10 1 7 11
M  V30 11 1 7 12 CFG=3
M  V30 12 1 10 13
M  V30 13 1 11 14
M  V30 14 1 13 15
M  V30 END BOND
M  V30 BEGIN COLLECTION
M  V30 MDLV30/STERAC1 ATOMS=(1 7)
M  V30 END COLLECTION
M  V30 END CTAB
M  END
>  <Molecule Name>
alpha-Methoxyethylmalonic acid, diethyl ester

>  <Activity Label>
0

>  <SMILES>
CCOC(C(C(C)OC)C(OCC)=O)=O

>  <Molecular Formula>
C10H18O5

>  <InChIKey>
YRZOBTUJNLFNMR-UHFFFAOYSA-N

>  <Repellency>
Inactive

>  <Reference DOI>
10.3390/toxics11100837

>  <Target Organism>
Not applied

$$$$
Compound 595
Actelion Java MolfileCreator 2.0

  0  0  0  0  0  0              0 V3000
M  V30 BEGIN CTAB
M  V30 COUNTS 15 14 0 0 0
M  V30 BEGIN ATOM
M  V30 1 O 0.0 0.0 0.0 0
M  V30 2 C 0.0 1.5003 0.0 0
M  V30 3 O 1.2994 2.2445 0.0 0
M  V30 4 C -1.2994 2.2445 0.0 0
M  V30 5 C 2.5989 1.4884 0.0 0
M  V30 6 O -1.2994 3.7448 0.0 0
M  V30 7 C -2.5989 1.4884 0.0 0 CFG=1
M  V30 8 C 3.8984 2.2327 0.0 0
M  V30 9 C -3.8984 2.2327 0.0 0
M  V30 10 C -2.5989 -0.0118 0.0 0
M  V30 11 O -3.8984 3.733 0.0 0
M  V30 12 O -5.1979 1.4766 0.0 0
M  V30 13 C -1.2994 -0.756 0.0 0
M  V30 14 C -6.4973 2.2209 0.0 0
M  V30 15 C -7.7968 1.4648 0.0 0
M  V30 END ATOM
M  V30 BEGIN BOND
M  V30 1 2 1 2
M  V30 2 1 2 3
M  V30 3 1 2 4
M  V30 4 1 3 5
M  V30 5 2 4 6
M  V30 6 1 4 7
M  V30 7 1 5 8
M  V30 8 1 7 9
M  V30 9 1 7 10 CFG=3
M  V30 10 2 9 11
M  V30 11 1 9 12
M  V30 12 1 10 13
M  V30 13 1 12 14
M  V30 14 1 14 15
M  V30 END BOND
M  V30 BEGIN COLLECTION
M  V30 MDLV30/STERAC1 ATOMS=(1 7)
M  V30 END COLLECTION
M  V30 END CTAB
M  END
>  <Molecule Name>
alpha-Keto-beta-ethylsuccinic acid, diethyl ester

>  <Activity Label>
0

>  <SMILES>
CCC(C(C(OCC)=O)=O)C(OCC)=O

>  <Molecular Formula>
C10H16O5

>  <InChIKey>
JWSAJONARKIICO-UHFFFAOYSA-N

>  <Repellency>
Inactive

>  <Reference DOI>
10.3390/toxics11100837

>  <Target Organism>
Not applied

$$$$
Compound 596
Actelion Java MolfileCreator 2.0

  0  0  0  0  0  0              0 V3000
M  V30 BEGIN CTAB
M  V30 COUNTS 15 14 0 0 0
M  V30 BEGIN ATOM
M  V30 1 O 0.0 0.0 0.0 0
M  V30 2 C 0.0 1.5 0.0 0
M  V30 3 O -1.2992 2.2442 0.0 0
M  V30 4 C 1.2992 2.2442 0.0 0 CFG=1
M  V30 5 C -2.5985 1.4882 0.0 0
M  V30 6 O 1.2992 3.7443 0.0 0
M  V30 7 C 2.5985 1.4882 0.0 0
M  V30 8 C -3.8978 2.2324 0.0 0
M  V30 9 C 3.8978 2.2324 0.0 0
M  V30 10 C -5.1971 1.4764 0.0 0
M  V30 11 O 3.8978 3.7324 0.0 0
M  V30 12 O 5.1971 1.4764 0.0 0
M  V30 13 C 6.4964 2.2205 0.0 0
M  V30 14 C 7.7957 1.4646 0.0 0
M  V30 15 C 9.095 2.2087 0.0 0
M  V30 END ATOM
M  V30 BEGIN BOND
M  V30 1 2 1 2
M  V30 2 1 2 3
M  V30 3 1 2 4
M  V30 4 1 3 5
M  V30 5 1 4 6 CFG=1
M  V30 6 1 4 7
M  V30 7 1 5 8
M  V30 8 1 7 9
M  V30 9 2 8 10
M  V30 10 2 9 11
M  V30 11 1 9 12
M  V30 12 1 12 13
M  V30 13 1 13 14
M  V30 14 2 14 15
M  V30 END BOND
M  V30 BEGIN COLLECTION
M  V30 MDLV30/STERAC1 ATOMS=(1 4)
M  V30 END COLLECTION
M  V30 END CTAB
M  END
>  <Molecule Name>
dl-Malic acid, di-allyl ester

>  <Activity Label>
0

>  <SMILES>
C=CCOC(CC(C(OCC=C)=O)O)=O

>  <Molecular Formula>
C10H14O5

>  <InChIKey>
YLTDNYQTDYMOBH-UHFFFAOYSA-N

>  <Repellency>
Inactive

>  <Reference DOI>
10.3390/toxics11100837

>  <Target Organism>
Not applied

$$$$
Compound 597
Actelion Java MolfileCreator 2.0

  0  0  0  0  0  0              0 V3000
M  V30 BEGIN CTAB
M  V30 COUNTS 15 14 0 0 0
M  V30 BEGIN ATOM
M  V30 1 O 0.0 0.0 0.0 0
M  V30 2 C 0.0 1.5 0.0 0
M  V30 3 O -1.2992 2.2442 0.0 0
M  V30 4 C 1.2992 2.2442 0.0 0 CFG=1
M  V30 5 C -2.5985 1.4882 0.0 0
M  V30 6 O 1.2992 3.7443 0.0 0
M  V30 7 C 2.5985 1.4882 0.0 0
M  V30 8 C -3.8978 2.2324 0.0 0
M  V30 9 C 3.8978 2.2324 0.0 0
M  V30 10 C -5.1971 1.4764 0.0 0
M  V30 11 O 3.8978 3.7324 0.0 0
M  V30 12 O 5.1971 1.4764 0.0 0
M  V30 13 C 6.4964 2.2205 0.0 0
M  V30 14 C 7.7957 1.4646 0.0 0
M  V30 15 C 9.095 2.2087 0.0 0
M  V30 END ATOM
M  V30 BEGIN BOND
M  V30 1 2 1 2
M  V30 2 1 2 3
M  V30 3 1 2 4
M  V30 4 1 3 5
M  V30 5 1 4 6 CFG=1
M  V30 6 1 4 7
M  V30 7 1 5 8
M  V30 8 1 7 9
M  V30 9 1 8 10
M  V30 10 2 9 11
M  V30 11 1 9 12
M  V30 12 1 12 13
M  V30 13 1 13 14
M  V30 14 1 14 15
M  V30 END BOND
M  V30 BEGIN COLLECTION
M  V30 MDLV30/STERAC1 ATOMS=(1 4)
M  V30 END COLLECTION
M  V30 END CTAB
M  END
>  <Molecule Name>
dl-Malic acid, di-propyl ester

>  <Activity Label>
0

>  <SMILES>
CCCOC(CC(C(OCCC)=O)O)=O

>  <Molecular Formula>
C10H18O5

>  <InChIKey>
LYTIDDOGVOPTSX-UHFFFAOYSA-N

>  <Repellency>
Inactive

>  <Reference DOI>
10.3390/toxics11100837

>  <Target Organism>
Not applied

$$$$
Compound 598
Actelion Java MolfileCreator 2.0

  0  0  0  0  0  0              0 V3000
M  V30 BEGIN CTAB
M  V30 COUNTS 15 14 0 0 0
M  V30 BEGIN ATOM
M  V30 1 O 0.0 0.0 0.0 0
M  V30 2 C 0.0 1.5003 0.0 0
M  V30 3 O 1.2994 2.2445 0.0 0
M  V30 4 C -1.2994 2.2445 0.0 0 CFG=1
M  V30 5 C 2.5989 1.4884 0.0 0
M  V30 6 O -1.2994 3.7448 0.0 0
M  V30 7 C -2.5989 1.4884 0.0 0
M  V30 8 C 3.8984 2.2327 0.0 0
M  V30 9 C 0.0 4.4891 0.0 0
M  V30 10 C -3.8984 2.2327 0.0 0
M  V30 11 C 0.0 5.9894 0.0 0
M  V30 12 O -3.8984 3.733 0.0 0
M  V30 13 O -5.1979 1.4766 0.0 0
M  V30 14 C -6.4973 2.2209 0.0 0
M  V30 15 C -7.7968 1.4648 0.0 0
M  V30 END ATOM
M  V30 BEGIN BOND
M  V30 1 2 1 2
M  V30 2 1 2 3
M  V30 3 1 2 4
M  V30 4 1 3 5
M  V30 5 1 4 6 CFG=3
M  V30 6 1 4 7
M  V30 7 1 5 8
M  V30 8 1 6 9
M  V30 9 1 7 10
M  V30 10 1 9 11
M  V30 11 2 10 12
M  V30 12 1 10 13
M  V30 13 1 13 14
M  V30 14 1 14 15
M  V30 END BOND
M  V30 BEGIN COLLECTION
M  V30 MDLV30/STERAC1 ATOMS=(1 4)
M  V30 END COLLECTION
M  V30 END CTAB
M  END
>  <Molecule Name>
Ethoxysuccinic acid, diethyl ester

>  <Activity Label>
0

>  <SMILES>
CCOC(CC(OCC)=O)C(OCC)=O

>  <Molecular Formula>
C10H18O5

>  <InChIKey>
SYCKGYYABBRUOZ-UHFFFAOYSA-N

>  <Repellency>
Inactive

>  <Reference DOI>
10.3390/toxics11100837

>  <Target Organism>
Not applied

$$$$
Compound 599
Actelion Java MolfileCreator 2.0

  0  0  0  0  0  0              0 V3000
M  V30 BEGIN CTAB
M  V30 COUNTS 15 14 0 0 0
M  V30 BEGIN ATOM
M  V30 1 O 0.0 0.0 0.0 0
M  V30 2 C 0.0 -1.4996 0.0 0
M  V30 3 O -1.2989 -2.2553 0.0 0
M  V30 4 O 1.2989 -2.2553 0.0 0
M  V30 5 C -2.5978 -1.5114 0.0 0 CFG=2
M  V30 6 C 2.5978 -1.5114 0.0 0
M  V30 7 C -3.8967 -2.2672 0.0 0
M  V30 8 C -2.5978 -0.0118 0.0 0
M  V30 9 C 3.8967 -2.2672 0.0 0
M  V30 10 O -3.8967 -3.7668 0.0 0
M  V30 11 O -5.1956 -1.5232 0.0 0
M  V30 12 C 5.1956 -1.5232 0.0 0
M  V30 13 C -6.4946 -2.279 0.0 0
M  V30 14 C -7.7935 -1.535 0.0 0
M  V30 15 C -9.0924 -2.2908 0.0 0
M  V30 END ATOM
M  V30 BEGIN BOND
M  V30 1 2 1 2
M  V30 2 1 2 3
M  V30 3 1 2 4
M  V30 4 1 3 5
M  V30 5 1 4 6
M  V30 6 1 5 7
M  V30 7 1 5 8 CFG=3
M  V30 8 1 6 9
M  V30 9 2 7 10
M  V30 10 1 7 11
M  V30 11 2 9 12
M  V30 12 1 11 13
M  V30 13 1 13 14
M  V30 14 2 14 15
M  V30 END BOND
M  V30 BEGIN COLLECTION
M  V30 MDLV30/STERAC1 ATOMS=(1 5)
M  V30 END COLLECTION
M  V30 END CTAB
M  END
>  <Molecule Name>
Carbonic acid, allyl alpha-carboallyloxyethyl ester

>  <Activity Label>
0

>  <SMILES>
CC(C(OCC=C)=O)OC(OCC=C)=O

>  <Molecular Formula>
C10H14O5

>  <InChIKey>
YSCKXVBYNFVUND-UHFFFAOYSA-N

>  <Repellency>
Inactive

>  <Reference DOI>
10.3390/toxics11100837

>  <Target Organism>
Not applied

$$$$
Compound 600
Actelion Java MolfileCreator 2.0

  0  0  0  0  0  0              0 V3000
M  V30 BEGIN CTAB
M  V30 COUNTS 15 14 0 0 0
M  V30 BEGIN ATOM
M  V30 1 O 0.0 0.0 0.0 0
M  V30 2 C 0.0 1.5 0.0 0
M  V30 3 O -1.2992 2.2442 0.0 0
M  V30 4 O 1.2992 2.2442 0.0 0
M  V30 5 C -2.5985 1.4882 0.0 0 CFG=2
M  V30 6 C 2.5985 1.4882 0.0 0
M  V30 7 C -3.8978 2.2324 0.0 0
M  V30 8 C -2.5985 -0.0118 0.0 0
M  V30 9 C 3.8978 2.2324 0.0 0
M  V30 10 O -3.8978 3.7324 0.0 0
M  V30 11 O -5.1971 1.4764 0.0 0
M  V30 12 C -6.4964 2.2205 0.0 0
M  V30 13 C -7.7957 1.4646 0.0 0
M  V30 14 C -9.095 2.2087 0.0 0
M  V30 15 C -10.3942 1.4528 0.0 0
M  V30 END ATOM
M  V30 BEGIN BOND
M  V30 1 2 1 2
M  V30 2 1 2 3
M  V30 3 1 2 4
M  V30 4 1 3 5
M  V30 5 1 4 6
M  V30 6 1 5 7
M  V30 7 1 5 8 CFG=1
M  V30 8 1 6 9
M  V30 9 2 7 10
M  V30 10 1 7 11
M  V30 11 1 11 12
M  V30 12 1 12 13
M  V30 13 1 13 14
M  V30 14 1 14 15
M  V30 END BOND
M  V30 BEGIN COLLECTION
M  V30 MDLV30/STERAC1 ATOMS=(1 5)
M  V30 END COLLECTION
M  V30 END CTAB
M  END
>  <Molecule Name>
Carbonic acid, ethyl alpha-carbobutoxyethyl ester

>  <Activity Label>
0

>  <SMILES>
CCCCOC(C(C)OC(OCC)=O)=O

>  <Molecular Formula>
C10H18O5

>  <InChIKey>
SQKAOOKVRRYCLT-UHFFFAOYSA-N

>  <Repellency>
Inactive

>  <Reference DOI>
10.3390/toxics11100837

>  <Target Organism>
Not applied

$$$$
Compound 601
Actelion Java MolfileCreator 2.0

  0  0  0  0  0  0              0 V3000
M  V30 BEGIN CTAB
M  V30 COUNTS 15 14 0 0 0
M  V30 BEGIN ATOM
M  V30 1 O 0.0 0.0 0.0 0
M  V30 2 C 0.0 1.5003 0.0 0
M  V30 3 O -1.2994 2.2445 0.0 0
M  V30 4 C 1.2994 2.2445 0.0 0
M  V30 5 C -2.5989 1.4884 0.0 0
M  V30 6 C 2.5989 1.4884 0.0 0
M  V30 7 C -3.8984 2.2327 0.0 0
M  V30 8 O 3.8984 2.2327 0.0 0
M  V30 9 C 2.5989 -0.0118 0.0 0
M  V30 10 O -3.8984 3.733 0.0 0
M  V30 11 O -5.1979 1.4766 0.0 0
M  V30 12 C -2.5989 4.4772 0.0 0
M  V30 13 C -6.4973 2.2209 0.0 0
M  V30 14 C -2.5989 5.9776 0.0 0
M  V30 15 C -7.7968 1.4648 0.0 0
M  V30 END ATOM
M  V30 BEGIN BOND
M  V30 1 2 1 2
M  V30 2 1 2 3
M  V30 3 1 2 4
M  V30 4 1 3 5
M  V30 5 1 4 6
M  V30 6 1 5 7
M  V30 7 2 6 8
M  V30 8 1 6 9
M  V30 9 1 7 10
M  V30 10 1 7 11
M  V30 11 1 10 12
M  V30 12 1 11 13
M  V30 13 1 12 14
M  V30 14 1 13 15
M  V30 END BOND
M  V30 END CTAB
M  END
>  <Molecule Name>
Acetoacetic acid, ethoxy-ethoxyethyl ester

>  <Activity Label>
0

>  <SMILES>
CCOC(COC(CC(C)=O)=O)OCC

>  <Molecular Formula>
C10H18O5

>  <InChIKey>
MQJDTJXRSDWRNV-UHFFFAOYSA-N

>  <Repellency>
Inactive

>  <Reference DOI>
10.3390/toxics11100837

>  <Target Organism>
Not applied

$$$$
Compound 602
Actelion Java MolfileCreator 2.0

  0  0  0  0  0  0              0 V3000
M  V30 BEGIN CTAB
M  V30 COUNTS 15 14 0 0 0
M  V30 BEGIN ATOM
M  V30 1 O 0.0 0.0 0.0 0
M  V30 2 C 1.3004 -0.7475 0.0 0
M  V30 3 C -1.3004 -0.7475 0.0 0
M  V30 4 C 2.6009 0.0 0.0 0
M  V30 5 C -2.6009 0.0 0.0 0
M  V30 6 O 3.9014 -0.7475 0.0 0
M  V30 7 O -3.9014 -0.7475 0.0 0
M  V30 8 C 5.2018 0.0 0.0 0
M  V30 9 C -5.2018 0.0 0.0 0
M  V30 10 C 6.5023 -0.7475 0.0 0
M  V30 11 C -6.5023 -0.7475 0.0 0
M  V30 12 O 7.8028 0.0 0.0 0
M  V30 13 O -7.8028 0.0 0.0 0
M  V30 14 C 9.1032 -0.7475 0.0 0
M  V30 15 C -9.1032 -0.7475 0.0 0
M  V30 END ATOM
M  V30 BEGIN BOND
M  V30 1 1 1 2
M  V30 2 1 1 3
M  V30 3 1 2 4
M  V30 4 1 3 5
M  V30 5 1 4 6
M  V30 6 1 5 7
M  V30 7 1 6 8
M  V30 8 1 7 9
M  V30 9 1 8 10
M  V30 10 1 9 11
M  V30 11 1 10 12
M  V30 12 1 11 13
M  V30 13 1 12 14
M  V30 14 1 13 15
M  V30 END BOND
M  V30 END CTAB
M  END
>  <Molecule Name>
Dimethoxytetraglycol

>  <Activity Label>
0

>  <SMILES>
COCCOCCOCCOCCOC

>  <Molecular Formula>
C10H22O5

>  <InChIKey>
ZUHZGEOKBKGPSW-UHFFFAOYSA-N

>  <Repellency>
Inactive

>  <Reference DOI>
10.3390/toxics11100837

>  <Target Organism>
Not applied

$$$$
Compound 603
Actelion Java MolfileCreator 2.0

  0  0  0  0  0  0              0 V3000
M  V30 BEGIN CTAB
M  V30 COUNTS 15 14 0 0 0
M  V30 BEGIN ATOM
M  V30 1 O 0.0 0.0 0.0 0
M  V30 2 C 0.0 -1.4996 0.0 0
M  V30 3 C 1.2989 0.7439 0.0 0
M  V30 4 C -1.2989 -2.2553 0.0 0
M  V30 5 C 1.2989 -2.2553 0.0 0
M  V30 6 C 1.2989 2.2435 0.0 0
M  V30 7 C -2.5978 -1.5114 0.0 0
M  V30 8 C 2.5978 -1.5114 0.0 0
M  V30 9 O -3.8967 -2.2672 0.0 0
M  V30 10 C -2.5978 -0.0118 0.0 0
M  V30 11 O 3.8967 -2.2672 0.0 0
M  V30 12 C -5.1956 -1.5232 0.0 0
M  V30 13 C 5.1956 -1.5232 0.0 0
M  V30 14 C -6.4946 -2.279 0.0 0
M  V30 15 C 6.4946 -2.279 0.0 0
M  V30 END ATOM
M  V30 BEGIN BOND
M  V30 1 1 1 2
M  V30 2 1 1 3
M  V30 3 1 2 4
M  V30 4 1 2 5
M  V30 5 1 3 6
M  V30 6 1 4 7
M  V30 7 1 5 8
M  V30 8 1 7 9
M  V30 9 1 7 10
M  V30 10 1 8 11
M  V30 11 1 9 12
M  V30 12 1 11 13
M  V30 13 1 12 14
M  V30 14 1 13 15
M  V30 END BOND
M  V30 END CTAB
M  END
>  <Molecule Name>
1,3,5-Triethoxyhexane

>  <Activity Label>
0

>  <SMILES>
CCOCCC(CC(C)OCC)OCC

>  <Molecular Formula>
C12H26O3

>  <InChIKey>
YJSMMPYNHZGUQE-UHFFFAOYSA-N

>  <Repellency>
Inactive

>  <Reference DOI>
10.3390/toxics11100837

>  <Target Organism>
Not applied

$$$$
Compound 604
Actelion Java MolfileCreator 2.0

  0  0  0  0  0  0              0 V3000
M  V30 BEGIN CTAB
M  V30 COUNTS 15 14 0 0 0
M  V30 BEGIN ATOM
M  V30 1 O 0.0 0.0 0.0 0
M  V30 2 C 0.0 1.5 0.0 0
M  V30 3 O -1.2992 2.2442 0.0 0
M  V30 4 C 1.2992 2.2442 0.0 0
M  V30 5 C -2.5985 1.4882 0.0 0
M  V30 6 C 2.5985 1.4882 0.0 0
M  V30 7 C -3.8978 2.2324 0.0 0
M  V30 8 C 3.8978 2.2324 0.0 0
M  V30 9 C -5.1971 1.4764 0.0 0
M  V30 10 O 3.8978 3.7324 0.0 0
M  V30 11 C 5.1971 1.4764 0.0 0
M  V30 12 C 6.4964 2.2205 0.0 0
M  V30 13 C 7.7957 1.4646 0.0 0
M  V30 14 C 9.095 2.2087 0.0 0
M  V30 15 C 7.7957 -0.0354 0.0 0
M  V30 END ATOM
M  V30 BEGIN BOND
M  V30 1 2 1 2
M  V30 2 1 2 3
M  V30 3 1 2 4
M  V30 4 1 3 5
M  V30 5 1 4 6
M  V30 6 1 5 7
M  V30 7 1 6 8
M  V30 8 2 7 9
M  V30 9 2 8 10
M  V30 10 1 8 11
M  V30 11 2 11 12 CFG=2
M  V30 12 1 12 13
M  V30 13 1 13 14
M  V30 14 1 13 15
M  V30 END BOND
M  V30 END CTAB
M  END
>  <Molecule Name>
7-Methyl-4-oxo-5-octenoic acid, allyl ester

>  <Activity Label>
0

>  <SMILES>
CC(C)C=CC(CCC(OCC=C)=O)=O

>  <Molecular Formula>
C12H18O3

>  <InChIKey>
CLJPERLFCLJNGL-UHFFFAOYSA-N

>  <Repellency>
Inactive

>  <Reference DOI>
10.3390/toxics11100837

>  <Target Organism>
Not applied

$$$$
Compound 605
Actelion Java MolfileCreator 2.0

  0  0  0  0  0  0              0 V3000
M  V30 BEGIN CTAB
M  V30 COUNTS 15 14 0 0 0
M  V30 BEGIN ATOM
M  V30 1 S 0.0 0.0 0.0 0
M  V30 2 C 0.0 -1.5015 0.0 0
M  V30 3 S -1.3005 -2.2464 0.0 0
M  V30 4 N 1.3005 -2.2464 0.0 0
M  V30 5 C -2.6011 -1.5015 0.0 0
M  V30 6 C 2.6011 -1.5015 0.0 0
M  V30 7 C 1.3005 -3.748 0.0 0
M  V30 8 S -2.6011 0.0 0.0 0
M  V30 9 N -3.9017 -2.2464 0.0 0
M  V30 10 C 3.9017 -2.2464 0.0 0
M  V30 11 C 2.6011 -4.5047 0.0 0
M  V30 12 C -3.9017 -3.748 0.0 0
M  V30 13 C -5.2023 -1.5015 0.0 0
M  V30 14 C -2.6011 -4.4929 0.0 0
M  V30 15 C -6.5028 -2.2464 0.0 0
M  V30 END ATOM
M  V30 BEGIN BOND
M  V30 1 2 1 2
M  V30 2 1 2 3
M  V30 3 1 2 4
M  V30 4 1 3 5
M  V30 5 1 4 6
M  V30 6 1 4 7
M  V30 7 2 5 8
M  V30 8 1 5 9
M  V30 9 1 6 10
M  V30 10 1 7 11
M  V30 11 1 9 12
M  V30 12 1 9 13
M  V30 13 1 12 14
M  V30 14 1 13 15
M  V30 END BOND
M  V30 END CTAB
M  END
>  <Molecule Name>
Tetraethylthiuram monosulfide

>  <Activity Label>
0

>  <SMILES>
CCN(CC)C(SC(N(CC)CC)=S)=S

>  <Molecular Formula>
C10H20N2S3

>  <InChIKey>
CTPKSRZFJSJGML-UHFFFAOYSA-N

>  <Repellency>
Inactive

>  <Reference DOI>
10.3390/toxics11100837

>  <Target Organism>
Not applied

$$$$
Compound 606
Actelion Java MolfileCreator 2.0

  0  0  0  0  0  0              0 V3000
M  V30 BEGIN CTAB
M  V30 COUNTS 15 14 0 0 0
M  V30 BEGIN ATOM
M  V30 1 N 0.0 0.0 0.0 0
M  V30 2 C -1.3004 -0.7475 0.0 0
M  V30 3 C -2.6009 -1.495 0.0 0
M  V30 4 C -3.9014 -0.7475 0.0 0
M  V30 5 C -5.2018 -1.495 0.0 0
M  V30 6 C -6.5023 -0.7475 0.0 0
M  V30 7 C -7.8028 -1.495 0.0 0
M  V30 8 C -9.1032 -0.7475 0.0 0
M  V30 9 C -10.4037 -1.495 0.0 0
M  V30 10 C -11.7042 -0.7475 0.0 0
M  V30 11 C -13.0047 -1.495 0.0 0
M  V30 12 C -14.3051 -0.7475 0.0 0
M  V30 13 C -15.6056 -1.495 0.0 0
M  V30 14 C -16.9061 -0.7475 0.0 0
M  V30 15 C -18.2065 -1.495 0.0 0
M  V30 END ATOM
M  V30 BEGIN BOND
M  V30 1 3 1 2
M  V30 2 1 2 3
M  V30 3 1 3 4
M  V30 4 1 4 5
M  V30 5 1 5 6
M  V30 6 1 6 7
M  V30 7 1 7 8
M  V30 8 1 8 9
M  V30 9 1 9 10
M  V30 10 1 10 11
M  V30 11 1 11 12
M  V30 12 1 12 13
M  V30 13 1 13 14
M  V30 14 1 14 15
M  V30 END BOND
M  V30 END CTAB
M  END
>  <Molecule Name>
Myristonitrile

>  <Activity Label>
0

>  <SMILES>
CCCCCCCCCCCCCC#N

>  <Molecular Formula>
C14H27N

>  <InChIKey>
MLRCLPRHEOPXLL-UHFFFAOYSA-N

>  <Repellency>
Inactive

>  <Reference DOI>
10.3390/toxics11100837

>  <Target Organism>
Not applied

$$$$
Compound 607
Actelion Java MolfileCreator 2.0

  0  0  0  0  0  0              0 V3000
M  V30 BEGIN CTAB
M  V30 COUNTS 15 14 0 0 0
M  V30 BEGIN ATOM
M  V30 1 S 0.0 0.0 0.0 0
M  V30 2 C 0.0 -1.4998 0.0 0
M  V30 3 C 1.299 0.744 0.0 0
M  V30 4 N 0.0 -2.9997 0.0 0
M  V30 5 C 2.5981 -0.0118 0.0 0
M  V30 6 C 3.8972 0.7322 0.0 0
M  V30 7 C 5.1963 -0.0236 0.0 0
M  V30 8 C 6.4954 0.7204 0.0 0
M  V30 9 C 7.7945 -0.0354 0.0 0
M  V30 10 C 9.0936 0.7085 0.0 0
M  V30 11 C 10.3927 -0.0472 0.0 0
M  V30 12 C 11.6918 0.6967 0.0 0
M  V30 13 C 12.9909 -0.059 0.0 0
M  V30 14 C 14.29 0.6849 0.0 0
M  V30 15 C 15.5891 -0.0708 0.0 0
M  V30 END ATOM
M  V30 BEGIN BOND
M  V30 1 1 1 2
M  V30 2 1 1 3
M  V30 3 3 2 4
M  V30 4 1 3 5
M  V30 5 1 5 6
M  V30 6 1 6 7
M  V30 7 1 7 8
M  V30 8 1 8 9
M  V30 9 1 9 10
M  V30 10 1 10 11
M  V30 11 1 11 12
M  V30 12 1 12 13
M  V30 13 1 13 14
M  V30 14 1 14 15
M  V30 END BOND
M  V30 END CTAB
M  END
>  <Molecule Name>
Thiocyanic acid, lauryl ester

>  <Activity Label>
0

>  <SMILES>
CCCCCCCCCCCCSC#N

>  <Molecular Formula>
C13H25NS

>  <InChIKey>
RYZZMYXTNUJGMU-UHFFFAOYSA-N

>  <Repellency>
Inactive

>  <Reference DOI>
10.3390/toxics11100837

>  <Target Organism>
Not applied

$$$$
Compound 608
Actelion Java MolfileCreator 2.0

  0  0  0  0  0  0              0 V3000
M  V30 BEGIN CTAB
M  V30 COUNTS 15 14 0 0 0
M  V30 BEGIN ATOM
M  V30 1 O 0.0 0.0 0.0 0
M  V30 2 C 1.2987 0.7438 0.0 0
M  V30 3 O 2.5974 -0.0118 0.0 0
M  V30 4 C 1.2987 2.2432 0.0 0 CFG=1
M  V30 5 C 2.5974 -1.5112 0.0 0
M  V30 6 C 0.0 2.9988 0.0 0
M  V30 7 C 2.5974 2.987 0.0 0
M  V30 8 C 3.8961 -2.2668 0.0 0
M  V30 9 N -1.2987 3.7545 0.0 0
M  V30 10 C 3.8961 2.2314 0.0 0
M  V30 11 C 5.1949 2.9752 0.0 0
M  V30 12 C 6.4936 2.2196 0.0 0
M  V30 13 C 7.7923 2.9634 0.0 0
M  V30 14 C 9.0911 2.2078 0.0 0
M  V30 15 C 10.3898 2.9516 0.0 0
M  V30 END ATOM
M  V30 BEGIN BOND
M  V30 1 2 1 2
M  V30 2 1 2 3
M  V30 3 1 2 4
M  V30 4 1 3 5
M  V30 5 1 4 6 CFG=1
M  V30 6 1 4 7
M  V30 7 1 5 8
M  V30 8 3 6 9
M  V30 9 1 7 10
M  V30 10 1 10 11
M  V30 11 1 11 12
M  V30 12 1 12 13
M  V30 13 1 13 14
M  V30 14 1 14 15
M  V30 END BOND
M  V30 BEGIN COLLECTION
M  V30 MDLV30/STERAC1 ATOMS=(1 4)
M  V30 END COLLECTION
M  V30 END CTAB
M  END
>  <Molecule Name>
n-Heptylcyanoacetic acid, ethyl ester

>  <Activity Label>
0

>  <SMILES>
CCCCCCCC(C(OCC)=O)C#N

>  <Molecular Formula>
C12H21NO2

>  <InChIKey>
RLFOJKJGCRFYMW-UHFFFAOYSA-N

>  <Repellency>
Inactive

>  <Reference DOI>
10.3390/toxics11100837

>  <Target Organism>
Not applied

$$$$
Compound 609
Actelion Java MolfileCreator 2.0

  0  0  0  0  0  0              0 V3000
M  V30 BEGIN CTAB
M  V30 COUNTS 15 14 0 0 0
M  V30 BEGIN ATOM
M  V30 1 O 0.0 0.0 0.0 0
M  V30 2 C -1.3002 0.7446 0.0 0
M  V30 3 O -2.6004 0.0 0.0 0
M  V30 4 C -1.3002 2.2458 0.0 0 CFG=1
M  V30 5 C -3.9006 0.7446 0.0 0
M  V30 6 C -1.3002 3.747 0.0 0
M  V30 7 C 0.0 2.9905 0.0 0
M  V30 8 C -2.6004 2.9905 0.0 0
M  V30 9 C -5.2009 0.0 0.0 0
M  V30 10 N -1.3002 5.2482 0.0 0
M  V30 11 C 1.3002 2.234 0.0 0
M  V30 12 C 0.0 4.4917 0.0 0
M  V30 13 C -2.6004 4.4917 0.0 0
M  V30 14 C 1.3002 0.7328 0.0 0
M  V30 15 C -3.9006 5.2363 0.0 0
M  V30 END ATOM
M  V30 BEGIN BOND
M  V30 1 2 1 2
M  V30 2 1 2 3
M  V30 3 1 2 4
M  V30 4 1 3 5
M  V30 5 1 4 6 CFG=1
M  V30 6 1 4 7
M  V30 7 1 4 8
M  V30 8 1 5 9
M  V30 9 3 6 10
M  V30 10 2 7 11 CFG=2
M  V30 11 1 7 12
M  V30 12 1 8 13
M  V30 13 1 11 14
M  V30 14 1 13 15
M  V30 END BOND
M  V30 BEGIN COLLECTION
M  V30 MDLV30/STERAC1 ATOMS=(1 4)
M  V30 END COLLECTION
M  V30 END CTAB
M  END
>  <Molecule Name>
(1-Methyl-1-propenyl)propylcyanoacetic acid, ethyl ester

>  <Activity Label>
0

>  <SMILES>
CCCC(C(C)=CC)(C(OCC)=O)C#N

>  <Molecular Formula>
C12H19NO2

>  <InChIKey>
VTSXSFDYXGOMAM-UHFFFAOYSA-N

>  <Repellency>
Inactive

>  <Reference DOI>
10.3390/toxics11100837

>  <Target Organism>
Not applied

$$$$
Compound 610
Actelion Java MolfileCreator 2.0

  0  0  0  0  0  0              0 V3000
M  V30 BEGIN CTAB
M  V30 COUNTS 15 14 0 0 0
M  V30 BEGIN ATOM
M  V30 1 O 0.0 0.0 0.0 0
M  V30 2 C 1.2991 0.744 0.0 0
M  V30 3 O 2.5982 -0.0118 0.0 0
M  V30 4 C 1.2991 2.2439 0.0 0 CFG=1
M  V30 5 C 3.8974 0.7322 0.0 0
M  V30 6 C 1.2991 3.7438 0.0 0
M  V30 7 C 2.5982 2.9998 0.0 0
M  V30 8 C 0.0 2.988 0.0 0
M  V30 9 C 5.1965 -0.0236 0.0 0
M  V30 10 N 1.2991 5.2437 0.0 0
M  V30 11 C 2.5982 4.4997 0.0 0
M  V30 12 C 3.8974 2.2439 0.0 0
M  V30 13 C 0.0 4.4879 0.0 0
M  V30 14 C -1.2991 5.2319 0.0 0
M  V30 15 C -1.2991 6.7318 0.0 0
M  V30 END ATOM
M  V30 BEGIN BOND
M  V30 1 2 1 2
M  V30 2 1 2 3
M  V30 3 1 2 4
M  V30 4 1 3 5
M  V30 5 1 4 6 CFG=1
M  V30 6 1 4 7
M  V30 7 1 4 8
M  V30 8 1 5 9
M  V30 9 3 6 10
M  V30 10 1 7 11
M  V30 11 1 7 12
M  V30 12 1 8 13
M  V30 13 1 13 14
M  V30 14 1 14 15
M  V30 END BOND
M  V30 BEGIN COLLECTION
M  V30 MDLV30/STERAC1 ATOMS=(1 4)
M  V30 END COLLECTION
M  V30 END CTAB
M  END
>  <Molecule Name>
n-Butyl-iso-propylcyanoacetic acid ethyl ester

>  <Activity Label>
0

>  <SMILES>
CCCCC(C(C)C)(C(OCC)=O)C#N

>  <Molecular Formula>
C12H21NO2

>  <InChIKey>
UUSNZGJKOUFURS-UHFFFAOYSA-N

>  <Repellency>
Inactive

>  <Reference DOI>
10.3390/toxics11100837

>  <Target Organism>
Not applied

$$$$
Compound 611
Actelion Java MolfileCreator 2.0

  0  0  0  0  0  0              0 V3000
M  V30 BEGIN CTAB
M  V30 COUNTS 15 14 0 0 0
M  V30 BEGIN ATOM
M  V30 1 O 0.0 0.0 0.0 0
M  V30 2 C 0.0 1.5003 0.0 0
M  V30 3 O -1.2994 2.2445 0.0 0
M  V30 4 C 1.2994 2.2445 0.0 0
M  V30 5 C -2.5989 1.4884 0.0 0
M  V30 6 C 2.5989 1.4884 0.0 0
M  V30 7 C 3.8984 2.2327 0.0 0
M  V30 8 O 3.8984 3.733 0.0 0
M  V30 9 N 5.1979 1.4766 0.0 0
M  V30 10 C 6.4973 2.2209 0.0 0
M  V30 11 C 5.1979 -0.0236 0.0 0
M  V30 12 C 7.7968 1.4648 0.0 0
M  V30 13 C 3.8984 -0.7678 0.0 0
M  V30 14 C 9.0963 2.2091 0.0 0
M  V30 15 C 3.8984 -2.2681 0.0 0
M  V30 END ATOM
M  V30 BEGIN BOND
M  V30 1 2 1 2
M  V30 2 1 2 3
M  V30 3 1 2 4
M  V30 4 1 3 5
M  V30 5 1 4 6
M  V30 6 1 6 7
M  V30 7 2 7 8
M  V30 8 1 7 9
M  V30 9 1 9 10
M  V30 10 1 9 11
M  V30 11 1 10 12
M  V30 12 1 11 13
M  V30 13 1 12 14
M  V30 14 1 13 15
M  V30 END BOND
M  V30 END CTAB
M  END
>  <Molecule Name>
N,N-Dipropylsuccinamic acid, methyl ester

>  <Activity Label>
0

>  <SMILES>
CCCN(CCC)C(CCC(OC)=O)=O

>  <Molecular Formula>
C11H21NO3

>  <InChIKey>
QGGNFKXNQVFBML-UHFFFAOYSA-N

>  <Repellency>
Inactive

>  <Reference DOI>
10.3390/toxics11100837

>  <Target Organism>
Not applied

$$$$
Compound 612
Actelion Java MolfileCreator 2.0

  0  0  0  0  0  0              0 V3000
M  V30 BEGIN CTAB
M  V30 COUNTS 15 14 0 0 0
M  V30 BEGIN ATOM
M  V30 1 O 0.0 0.0 0.0 0
M  V30 2 C 0.0 1.5017 0.0 0
M  V30 3 O -1.3007 2.2467 0.0 0
M  V30 4 C 1.3007 2.2467 0.0 0
M  V30 5 C -2.6014 1.5017 0.0 0
M  V30 6 C 2.6014 1.5017 0.0 0
M  V30 7 C -3.9022 2.2467 0.0 0
M  V30 8 C 3.9022 2.2467 0.0 0
M  V30 9 C -5.2029 1.5017 0.0 0
M  V30 10 O 3.9022 3.7485 0.0 0
M  V30 11 N 5.2029 1.5017 0.0 0
M  V30 12 C 6.5037 2.2467 0.0 0
M  V30 13 C 5.2029 0.0 0.0 0
M  V30 14 C 7.8044 1.5017 0.0 0
M  V30 15 C 6.5037 -0.7567 0.0 0
M  V30 END ATOM
M  V30 BEGIN BOND
M  V30 1 2 1 2
M  V30 2 1 2 3
M  V30 3 1 2 4
M  V30 4 1 3 5
M  V30 5 1 4 6
M  V30 6 1 5 7
M  V30 7 1 6 8
M  V30 8 2 7 9
M  V30 9 2 8 10
M  V30 10 1 8 11
M  V30 11 1 11 12
M  V30 12 1 11 13
M  V30 13 1 12 14
M  V30 14 1 13 15
M  V30 END BOND
M  V30 END CTAB
M  END
>  <Molecule Name>
N,N-Diethylsuccinamic acid, allyl ester

>  <Activity Label>
0

>  <SMILES>
CCN(CC)C(CCC(OCC=C)=O)=O

>  <Molecular Formula>
C11H19NO3

>  <InChIKey>
FKPRCSFOGQCQBT-UHFFFAOYSA-N

>  <Repellency>
Inactive

>  <Reference DOI>
10.3390/toxics11100837

>  <Target Organism>
Not applied

$$$$
Compound 613
Actelion Java MolfileCreator 2.0

  0  0  0  0  0  0              0 V3000
M  V30 BEGIN CTAB
M  V30 COUNTS 15 15 0 0 0
M  V30 BEGIN ATOM
M  V30 1 O 0.0 0.0 0.0 0
M  V30 2 C 0.0 1.5004 0.0 0
M  V30 3 O -1.2996 2.2448 0.0 0
M  V30 4 C 1.2996 2.2448 0.0 0
M  V30 5 C -2.5992 1.5004 0.0 0
M  V30 6 C 2.5992 1.5004 0.0 0
M  V30 7 C -3.8988 2.2566 0.0 0
M  V30 8 C -2.5992 0.0 0.0 0
M  V30 9 C -5.1984 1.5122 0.0 0
M  V30 10 C -3.8988 -0.7443 0.0 0
M  V30 11 O -6.4981 2.2684 0.0 0
M  V30 12 C -5.1984 0.0118 0.0 0
M  V30 13 C -6.4981 3.7689 0.0 0
M  V30 14 O -7.7977 4.525 0.0 0
M  V30 15 C -5.1984 4.5132 0.0 0
M  V30 END ATOM
M  V30 BEGIN BOND
M  V30 1 2 1 2
M  V30 2 1 2 3
M  V30 3 1 2 4
M  V30 4 1 3 5
M  V30 5 1 4 6
M  V30 6 2 5 7
M  V30 7 1 5 8
M  V30 8 1 7 9
M  V30 9 2 8 10
M  V30 10 1 9 11
M  V30 11 2 9 12
M  V30 12 1 11 13
M  V30 13 2 13 14
M  V30 14 1 13 15
M  V30 15 1 10 12
M  V30 END BOND
M  V30 END CTAB
M  END
>  <Molecule Name>
Resorcinol acetate propionate

>  <Activity Label>
0

>  <SMILES>
CCC(Oc1cc(OC(C)=O)ccc1)=O

>  <Molecular Formula>
C11H12O4

>  <InChIKey>
BKPOQFSGXDHKSF-UHFFFAOYSA-N

>  <Repellency>
Inactive

>  <Reference DOI>
10.3390/toxics11100837

>  <Target Organism>
Not applied

$$$$
Compound 614
Actelion Java MolfileCreator 2.0

  0  0  0  0  0  0              0 V3000
M  V30 BEGIN CTAB
M  V30 COUNTS 15 15 0 0 0
M  V30 BEGIN ATOM
M  V30 1 O 0.0 0.0 0.0 0
M  V30 2 C 0.0 1.5002 0.0 0
M  V30 3 O -1.2994 2.2444 0.0 0
M  V30 4 C 1.2994 2.2444 0.0 0
M  V30 5 C -2.5988 1.4884 0.0 0
M  V30 6 C 1.2994 3.7447 0.0 0
M  V30 7 C 2.5988 1.4884 0.0 0
M  V30 8 C -3.8983 2.2326 0.0 0
M  V30 9 C 2.5988 4.4889 0.0 0
M  V30 10 C 3.8983 2.2326 0.0 0
M  V30 11 O -5.1977 1.4766 0.0 0
M  V30 12 C 3.8983 3.7329 0.0 0
M  V30 13 C -6.4972 2.2208 0.0 0
M  V30 14 O 5.1977 4.4771 0.0 0
M  V30 15 C -7.7966 1.4648 0.0 0
M  V30 END ATOM
M  V30 BEGIN BOND
M  V30 1 2 1 2
M  V30 2 1 2 3
M  V30 3 1 2 4
M  V30 4 1 3 5
M  V30 5 2 4 6
M  V30 6 1 4 7
M  V30 7 1 5 8
M  V30 8 1 6 9
M  V30 9 2 7 10
M  V30 10 1 8 11
M  V30 11 2 9 12
M  V30 12 1 11 13
M  V30 13 1 12 14
M  V30 14 1 13 15
M  V30 15 1 10 12
M  V30 END BOND
M  V30 END CTAB
M  END
>  <Molecule Name>
p-Hydroxybenzoic acid, beta-ethoxyethyl ester

>  <Activity Label>
0

>  <SMILES>
CCOCCOC(c(cc1)ccc1O)=O

>  <Molecular Formula>
C11H14O4

>  <InChIKey>
AEOMETBWIKODHJ-UHFFFAOYSA-N

>  <Repellency>
Inactive

>  <Reference DOI>
10.3390/toxics11100837

>  <Target Organism>
Not applied

$$$$
Compound 615
Actelion Java MolfileCreator 2.0

  0  0  0  0  0  0              0 V3000
M  V30 BEGIN CTAB
M  V30 COUNTS 15 15 0 0 0
M  V30 BEGIN ATOM
M  V30 1 O 0.0 0.0 0.0 0
M  V30 2 C 0.0 -1.4994 0.0 0
M  V30 3 O -1.2987 -2.2551 0.0 0
M  V30 4 C 1.2987 -2.2551 0.0 0
M  V30 5 C -2.5975 -1.5112 0.0 0
M  V30 6 O 2.5975 -1.5112 0.0 0
M  V30 7 C -3.8962 -2.2669 0.0 0
M  V30 8 C 3.8962 -2.2669 0.0 0
M  V30 9 O -5.195 -1.523 0.0 0
M  V30 10 C 3.8962 -3.7664 0.0 0
M  V30 11 C 5.195 -1.523 0.0 0
M  V30 12 C -6.4938 -2.2787 0.0 0
M  V30 13 C 5.195 -4.522 0.0 0
M  V30 14 C 6.4938 -2.2669 0.0 0
M  V30 15 C 6.4938 -3.7664 0.0 0
M  V30 END ATOM
M  V30 BEGIN BOND
M  V30 1 2 1 2
M  V30 2 1 2 3
M  V30 3 1 2 4
M  V30 4 1 3 5
M  V30 5 1 4 6
M  V30 6 1 5 7
M  V30 7 1 6 8
M  V30 8 1 7 9
M  V30 9 2 8 10
M  V30 10 1 8 11
M  V30 11 1 9 12
M  V30 12 1 10 13
M  V30 13 2 11 14
M  V30 14 2 13 15
M  V30 15 1 14 15
M  V30 END BOND
M  V30 END CTAB
M  END
>  <Molecule Name>
Phenoxyacetic acid, methoxyethyl ester

>  <Activity Label>
0

>  <SMILES>
COCCOC(COc1ccccc1)=O

>  <Molecular Formula>
C11H14O4

>  <InChIKey>
NQCQPQZMEDGGGU-UHFFFAOYSA-N

>  <Repellency>
Inactive

>  <Reference DOI>
10.3390/toxics11100837

>  <Target Organism>
Not applied

$$$$
Compound 616
Actelion Java MolfileCreator 2.0

  0  0  0  0  0  0              0 V3000
M  V30 BEGIN CTAB
M  V30 COUNTS 15 15 0 0 0
M  V30 BEGIN ATOM
M  V30 1 O 0.0 0.0 0.0 0
M  V30 2 C 0.0 -1.4992 0.0 0
M  V30 3 O -1.2985 -2.2548 0.0 0
M  V30 4 C 1.2985 -2.2548 0.0 0
M  V30 5 C -2.5971 -1.511 0.0 0
M  V30 6 O 2.5971 -1.511 0.0 0
M  V30 7 C -3.8957 -2.2666 0.0 0
M  V30 8 C 3.8957 -2.2666 0.0 0
M  V30 9 C 5.1943 -1.511 0.0 0
M  V30 10 C 3.8957 -3.7659 0.0 0
M  V30 11 O 5.1943 -0.0118 0.0 0
M  V30 12 C 6.4929 -2.2548 0.0 0
M  V30 13 C 5.1943 -4.5096 0.0 0
M  V30 14 C 6.4929 0.7437 0.0 0
M  V30 15 C 6.4929 -3.7541 0.0 0
M  V30 END ATOM
M  V30 BEGIN BOND
M  V30 1 2 1 2
M  V30 2 1 2 3
M  V30 3 1 2 4
M  V30 4 1 3 5
M  V30 5 1 4 6
M  V30 6 1 5 7
M  V30 7 1 6 8
M  V30 8 2 8 9
M  V30 9 1 8 10
M  V30 10 1 9 11
M  V30 11 1 9 12
M  V30 12 2 10 13
M  V30 13 1 11 14
M  V30 14 2 12 15
M  V30 15 1 13 15
M  V30 END BOND
M  V30 END CTAB
M  END
>  <Molecule Name>
o-Methoxyphenoxyacetic acid, ethyl ester

>  <Activity Label>
0

>  <SMILES>
CCOC(COc(cccc1)c1OC)=O

>  <Molecular Formula>
C11H14O4

>  <InChIKey>
BZCGGCRVJFWCIW-UHFFFAOYSA-N

>  <Repellency>
Inactive

>  <Reference DOI>
10.3390/toxics11100837

>  <Target Organism>
Not applied

$$$$
Compound 617
Actelion Java MolfileCreator 2.0

  0  0  0  0  0  0              0 V3000
M  V30 BEGIN CTAB
M  V30 COUNTS 15 15 0 0 0
M  V30 BEGIN ATOM
M  V30 1 O 0.0 0.0 0.0 0
M  V30 2 C 0.0 -1.4992 0.0 0
M  V30 3 O -1.2985 -2.2548 0.0 0
M  V30 4 C 1.2985 -2.2548 0.0 0
M  V30 5 C -2.5971 -1.511 0.0 0
M  V30 6 O 2.5971 -1.511 0.0 0
M  V30 7 C -3.8957 -2.2666 0.0 0
M  V30 8 C 3.8957 -2.2666 0.0 0
M  V30 9 C 5.1943 -1.5229 0.0 0
M  V30 10 C 3.8957 -3.7659 0.0 0
M  V30 11 C 6.4929 -2.2784 0.0 0
M  V30 12 C 5.1943 -4.5214 0.0 0
M  V30 13 C 6.4929 -3.7777 0.0 0
M  V30 14 O 7.7915 -4.5332 0.0 0
M  V30 15 C 7.7915 -6.0325 0.0 0
M  V30 END ATOM
M  V30 BEGIN BOND
M  V30 1 2 1 2
M  V30 2 1 2 3
M  V30 3 1 2 4
M  V30 4 1 3 5
M  V30 5 1 4 6
M  V30 6 1 5 7
M  V30 7 1 6 8
M  V30 8 2 8 9
M  V30 9 1 8 10
M  V30 10 1 9 11
M  V30 11 2 10 12
M  V30 12 2 11 13
M  V30 13 1 13 14
M  V30 14 1 14 15
M  V30 15 1 12 13
M  V30 END BOND
M  V30 END CTAB
M  END
>  <Molecule Name>
p-methoxyphenoxyacetic acid, ethyl ester

>  <Activity Label>
0

>  <SMILES>
CCOC(COc(cc1)ccc1OC)=O

>  <Molecular Formula>
C11H14O4

>  <InChIKey>
KRWZDCOECRLWJL-UHFFFAOYSA-N

>  <Repellency>
Inactive

>  <Reference DOI>
10.3390/toxics11100837

>  <Target Organism>
Not applied

$$$$
Compound 618
Actelion Java MolfileCreator 2.0

  0  0  0  0  0  0              0 V3000
M  V30 BEGIN CTAB
M  V30 COUNTS 15 15 0 0 0
M  V30 BEGIN ATOM
M  V30 1 O 0.0 0.0 0.0 0
M  V30 2 C 0.0 -1.499 0.0 0
M  V30 3 O 1.2984 -2.2545 0.0 0
M  V30 4 O -1.2984 -2.2545 0.0 0
M  V30 5 C 2.5968 -1.5108 0.0 0
M  V30 6 C -2.5968 -1.5108 0.0 0
M  V30 7 C 3.8952 -2.2663 0.0 0
M  V30 8 C -3.8952 -2.2663 0.0 0
M  V30 9 C 3.8952 -3.7654 0.0 0
M  V30 10 C 5.1936 -1.5226 0.0 0
M  V30 11 C 5.1936 -4.5208 0.0 0
M  V30 12 C 6.4921 -2.2663 0.0 0
M  V30 13 C 6.4921 -3.7772 0.0 0
M  V30 14 O 7.7905 -4.5326 0.0 0
M  V30 15 C 9.0889 -3.789 0.0 0
M  V30 END ATOM
M  V30 BEGIN BOND
M  V30 1 2 1 2
M  V30 2 1 2 3
M  V30 3 1 2 4
M  V30 4 1 3 5
M  V30 5 1 4 6
M  V30 6 1 5 7
M  V30 7 1 6 8
M  V30 8 2 7 9
M  V30 9 1 7 10
M  V30 10 1 9 11
M  V30 11 2 10 12
M  V30 12 2 11 13
M  V30 13 1 13 14
M  V30 14 1 14 15
M  V30 15 1 12 13
M  V30 END BOND
M  V30 END CTAB
M  END
>  <Molecule Name>
Carbonic acid, p-methoxybenzyl ethyl ester

>  <Activity Label>
0

>  <SMILES>
CCOC(OCc(cc1)ccc1OC)=O

>  <Molecular Formula>
C11H14O4

>  <InChIKey>
LZTKOSZQVGJEQR-UHFFFAOYSA-N

>  <Repellency>
Inactive

>  <Reference DOI>
10.3390/toxics11100837

>  <Target Organism>
Not applied

$$$$
Compound 619
Actelion Java MolfileCreator 2.0

  0  0  0  0  0  0              0 V3000
M  V30 BEGIN CTAB
M  V30 COUNTS 15 15 0 0 0
M  V30 BEGIN ATOM
M  V30 1 S 0.0 0.0 0.0 0
M  V30 2 O -0.7446 -1.3001 0.0 0
M  V30 3 O 0.7564 -1.3001 0.0 0
M  V30 4 C -1.3001 0.7446 0.0 0
M  V30 5 C 1.3001 0.7446 0.0 0
M  V30 6 C -2.6002 0.0 0.0 0
M  V30 7 C 2.6002 0.0 0.0 0
M  V30 8 C -3.9003 0.7564 0.0 0
M  V30 9 C -2.6002 -1.501 0.0 0
M  V30 10 O 2.6002 -1.501 0.0 0
M  V30 11 O 3.9003 0.7446 0.0 0
M  V30 12 C -5.2005 0.0118 0.0 0
M  V30 13 C -3.9003 -2.2456 0.0 0
M  V30 14 C 5.2005 0.0 0.0 0
M  V30 15 C -5.2005 -1.4892 0.0 0
M  V30 END ATOM
M  V30 BEGIN BOND
M  V30 1 2 1 2
M  V30 2 2 1 3
M  V30 3 1 1 4
M  V30 4 1 1 5
M  V30 5 1 4 6
M  V30 6 1 5 7
M  V30 7 2 6 8
M  V30 8 1 6 9
M  V30 9 2 7 10
M  V30 10 1 7 11
M  V30 11 1 8 12
M  V30 12 2 9 13
M  V30 13 1 11 14
M  V30 14 2 12 15
M  V30 15 1 13 15
M  V30 END BOND
M  V30 END CTAB
M  END
>  <Molecule Name>
Benzyl carbomethoxymethyl sulfone

>  <Activity Label>
0

>  <SMILES>
COC(CS(Cc1ccccc1)(=O)=O)=O

>  <Molecular Formula>
C10H12O4S

>  <InChIKey>
MJSXIDAPNNBSKC-UHFFFAOYSA-N

>  <Repellency>
Inactive

>  <Reference DOI>
10.3390/toxics11100837

>  <Target Organism>
Not applied

$$$$
Compound 620
Actelion Java MolfileCreator 2.0

  0  0  0  0  0  0              0 V3000
M  V30 BEGIN CTAB
M  V30 COUNTS 15 15 0 0 0
M  V30 BEGIN ATOM
M  V30 1 O 0.0 0.0 0.0 0
M  V30 2 C 0.0 -1.5014 0.0 0
M  V30 3 O -1.3004 -2.2462 0.0 0
M  V30 4 C 1.3004 -2.2462 0.0 0
M  V30 5 C -2.6009 -1.5014 0.0 0
M  V30 6 C 2.6009 -1.5014 0.0 0
M  V30 7 C -3.9014 -2.2462 0.0 0
M  V30 8 C 3.9014 -2.2462 0.0 0
M  V30 9 C -5.2018 -1.5014 0.0 0
M  V30 10 C -6.5023 -2.2462 0.0 0
M  V30 11 C -7.8028 -1.4896 0.0 0
M  V30 12 C -6.5023 -3.7477 0.0 0
M  V30 13 C -9.1032 -2.2344 0.0 0
M  V30 14 C -7.8028 -4.4925 0.0 0
M  V30 15 C -9.1032 -3.7358 0.0 0
M  V30 END ATOM
M  V30 BEGIN BOND
M  V30 1 2 1 2
M  V30 2 1 2 3
M  V30 3 1 2 4
M  V30 4 1 3 5
M  V30 5 2 4 6
M  V30 6 1 5 7
M  V30 7 1 6 8
M  V30 8 1 7 9
M  V30 9 1 9 10
M  V30 10 2 10 11
M  V30 11 1 10 12
M  V30 12 1 11 13
M  V30 13 2 12 14
M  V30 14 2 13 15
M  V30 15 1 14 15
M  V30 END BOND
M  V30 END CTAB
M  END
>  <Molecule Name>
Crotonic acid, 3-phenylpropyl ester

>  <Activity Label>
0

>  <SMILES>
C/C=C/C(OCCCc1ccccc1)=O

>  <Molecular Formula>
C13H16O2

>  <InChIKey>
OSJGHGHIAYUYSS-FARCUNLSSA-N

>  <Repellency>
Inactive

>  <Reference DOI>
10.3390/toxics11100837

>  <Target Organism>
Not applied

$$$$
Compound 621
Actelion Java MolfileCreator 2.0

  0  0  0  0  0  0              0 V3000
M  V30 BEGIN CTAB
M  V30 COUNTS 15 15 0 0 0
M  V30 BEGIN ATOM
M  V30 1 O 0.0 0.0 0.0 0
M  V30 2 C 0.0 -1.5014 0.0 0
M  V30 3 O -1.3004 -2.2462 0.0 0
M  V30 4 C 1.3004 -2.2462 0.0 0
M  V30 5 C -2.6009 -1.5014 0.0 0
M  V30 6 C 2.6009 -1.5014 0.0 0
M  V30 7 C -3.9014 -2.2462 0.0 0
M  V30 8 C 3.9014 -2.2462 0.0 0
M  V30 9 C -5.2018 -1.5014 0.0 0
M  V30 10 C -6.5023 -2.2462 0.0 0
M  V30 11 C -7.8028 -1.4896 0.0 0
M  V30 12 C -6.5023 -3.7477 0.0 0
M  V30 13 C -9.1032 -2.2344 0.0 0
M  V30 14 C -7.8028 -4.4925 0.0 0
M  V30 15 C -9.1032 -3.7358 0.0 0
M  V30 END ATOM
M  V30 BEGIN BOND
M  V30 1 2 1 2
M  V30 2 1 2 3
M  V30 3 1 2 4
M  V30 4 1 3 5
M  V30 5 1 4 6
M  V30 6 1 5 7
M  V30 7 1 6 8
M  V30 8 2 7 9 CFG=2
M  V30 9 1 9 10
M  V30 10 2 10 11
M  V30 11 1 10 12
M  V30 12 1 11 13
M  V30 13 2 12 14
M  V30 14 2 13 15
M  V30 15 1 14 15
M  V30 END BOND
M  V30 END CTAB
M  END
>  <Molecule Name>
Butyric acid, cinnamyl ester

>  <Activity Label>
0

>  <SMILES>
CCCC(OCC=Cc1ccccc1)=O

>  <Molecular Formula>
C13H16O2

>  <InChIKey>
YZYPQKZWNXANRB-UHFFFAOYSA-N

>  <Repellency>
Inactive

>  <Reference DOI>
10.3390/toxics11100837

>  <Target Organism>
Not applied

$$$$
Compound 622
Actelion Java MolfileCreator 2.0

  0  0  0  0  0  0              0 V3000
M  V30 BEGIN CTAB
M  V30 COUNTS 15 15 0 0 0
M  V30 BEGIN ATOM
M  V30 1 O 0.0 0.0 0.0 0
M  V30 2 C -1.3006 -0.7449 0.0 0
M  V30 3 O -2.6013 0.0 0.0 0
M  V30 4 C -1.3006 -2.2466 0.0 0
M  V30 5 C -2.6013 1.5016 0.0 0
M  V30 6 C -1.3006 -3.7482 0.0 0
M  V30 7 C -1.3006 2.2466 0.0 0
M  V30 8 C -3.9019 2.2466 0.0 0
M  V30 9 C -1.3006 -5.2499 0.0 0
M  V30 10 C -1.3006 3.7482 0.0 0
M  V30 11 C -3.9019 3.7482 0.0 0
M  V30 12 C -2.6013 -5.9948 0.0 0
M  V30 13 C -2.6013 4.4932 0.0 0
M  V30 14 C -3.9019 -5.2499 0.0 0
M  V30 15 C -5.2026 -5.9948 0.0 0
M  V30 END ATOM
M  V30 BEGIN BOND
M  V30 1 2 1 2
M  V30 2 1 2 3
M  V30 3 1 2 4
M  V30 4 1 3 5
M  V30 5 3 4 6
M  V30 6 1 5 7
M  V30 7 1 5 8
M  V30 8 1 6 9
M  V30 9 1 7 10
M  V30 10 1 8 11
M  V30 11 1 9 12
M  V30 12 1 10 13
M  V30 13 1 12 14
M  V30 14 1 14 15
M  V30 15 1 11 13
M  V30 END BOND
M  V30 END CTAB
M  END
>  <Molecule Name>
2-Heptynoic acid, cyclohexyl ester

>  <Activity Label>
0

>  <SMILES>
CCCCC#CC(OC1CCCCC1)=O

>  <Molecular Formula>
C13H20O2

>  <InChIKey>
UORIMWDRTKOQOR-UHFFFAOYSA-N

>  <Repellency>
Inactive

>  <Reference DOI>
10.3390/toxics11100837

>  <Target Organism>
Not applied

$$$$
Compound 623
Actelion Java MolfileCreator 2.0

  0  0  0  0  0  0              0 V3000
M  V30 BEGIN CTAB
M  V30 COUNTS 15 15 0 0 0
M  V30 BEGIN ATOM
M  V30 1 O 0.0 0.0 0.0 0
M  V30 2 C 0.0 1.5008 0.0 0
M  V30 3 O -1.2999 2.2453 0.0 0
M  V30 4 C 1.2999 2.2453 0.0 0
M  V30 5 C -2.5999 1.5008 0.0 0
M  V30 6 C 2.5999 1.5008 0.0 0
M  V30 7 C -3.8998 2.2572 0.0 0
M  V30 8 C -2.5999 0.0 0.0 0
M  V30 9 C -1.2999 0.7445 0.0 0
M  V30 10 C -5.1998 1.5126 0.0 0
M  V30 11 C -3.8998 -0.7445 0.0 0
M  V30 12 C -5.1998 0.0118 0.0 0
M  V30 13 C -6.4998 -0.7327 0.0 0
M  V30 14 C -7.7997 0.0118 0.0 0
M  V30 15 C -6.4998 -2.2335 0.0 0
M  V30 END ATOM
M  V30 BEGIN BOND
M  V30 1 2 1 2
M  V30 2 1 2 3
M  V30 3 1 2 4
M  V30 4 1 3 5
M  V30 5 2 4 6
M  V30 6 1 5 7
M  V30 7 1 5 8
M  V30 8 1 5 9
M  V30 9 1 7 10
M  V30 10 1 8 11
M  V30 11 1 10 12
M  V30 12 1 12 13
M  V30 13 1 13 14
M  V30 14 1 13 15
M  V30 15 1 11 12
M  V30 END BOND
M  V30 END CTAB
M  END
>  <Molecule Name>
Acrylic acid, 1-menthyl ester

>  <Activity Label>
0

>  <SMILES>
CC(C)C(CC1)CCC1(C)OC(C=C)=O

>  <Molecular Formula>
C13H22O2

>  <InChIKey>
IPHXWYQPYVKCJM-UHFFFAOYSA-N

>  <Repellency>
Inactive

>  <Reference DOI>
10.3390/toxics11100837

>  <Target Organism>
Not applied

$$$$
Compound 624
Actelion Java MolfileCreator 2.0

  0  0  0  0  0  0              0 V3000
M  V30 BEGIN CTAB
M  V30 COUNTS 15 15 0 0 0
M  V30 BEGIN ATOM
M  V30 1 O 0.0 0.0 0.0 0
M  V30 2 C 0.0 -1.5012 0.0 0
M  V30 3 O 1.3003 -2.2459 0.0 0
M  V30 4 C -1.3003 -2.2459 0.0 0
M  V30 5 C 2.6006 -1.5012 0.0 0
M  V30 6 C -2.6006 -1.5012 0.0 0
M  V30 7 C -1.3003 -3.7472 0.0 0
M  V30 8 C 3.9009 -2.2459 0.0 0
M  V30 9 C -3.9009 -2.2459 0.0 0
M  V30 10 C 5.2012 -1.5012 0.0 0
M  V30 11 C -5.2012 -1.4894 0.0 0
M  V30 12 C -3.9009 -3.7472 0.0 0
M  V30 13 C -6.5015 -2.2341 0.0 0
M  V30 14 C -5.2012 -4.4919 0.0 0
M  V30 15 C -6.5015 -3.7354 0.0 0
M  V30 END ATOM
M  V30 BEGIN BOND
M  V30 1 2 1 2
M  V30 2 1 2 3
M  V30 3 1 2 4
M  V30 4 1 3 5
M  V30 5 2 4 6 CFG=2
M  V30 6 1 4 7
M  V30 7 1 5 8
M  V30 8 1 6 9
M  V30 9 2 8 10
M  V30 10 2 9 11
M  V30 11 1 9 12
M  V30 12 1 11 13
M  V30 13 2 12 14
M  V30 14 2 13 15
M  V30 15 1 14 15
M  V30 END BOND
M  V30 END CTAB
M  END
>  <Molecule Name>
alpha-methylcinnamic acid, allyl ester

>  <Activity Label>
0

>  <SMILES>
CC(C(OCC=C)=O)=Cc1ccccc1

>  <Molecular Formula>
C13H14O2

>  <InChIKey>
ZMSRPUQGLIJHCY-UHFFFAOYSA-N

>  <Repellency>
Inactive

>  <Reference DOI>
10.3390/toxics11100837

>  <Target Organism>
Not applied

$$$$
Compound 625
Actelion Java MolfileCreator 2.0

  0  0  0  0  0  0              0 V3000
M  V30 BEGIN CTAB
M  V30 COUNTS 15 15 0 0 0
M  V30 BEGIN ATOM
M  V30 1 O 0.0 0.0 0.0 0
M  V30 2 C 0.0 -1.4991 0.0 0
M  V30 3 O -1.2984 -2.2545 0.0 0
M  V30 4 C 1.2984 -2.2545 0.0 0
M  V30 5 C -2.5968 -1.5109 0.0 0 CFG=2
M  V30 6 C 1.2984 -3.7536 0.0 0
M  V30 7 C 2.5968 -1.5109 0.0 0
M  V30 8 C -3.8953 -2.2663 0.0 0
M  V30 9 C -2.5968 -0.0118 0.0 0
M  V30 10 C 2.5968 -4.5091 0.0 0
M  V30 11 C 3.8953 -2.2545 0.0 0
M  V30 12 C -5.1937 -1.5227 0.0 0
M  V30 13 C 3.8953 -3.7654 0.0 0
M  V30 14 C -5.1937 -0.0236 0.0 0
M  V30 15 C -6.4921 -2.2781 0.0 0
M  V30 END ATOM
M  V30 BEGIN BOND
M  V30 1 2 1 2
M  V30 2 1 2 3
M  V30 3 1 2 4
M  V30 4 1 3 5
M  V30 5 2 4 6
M  V30 6 1 4 7
M  V30 7 1 5 8
M  V30 8 1 5 9 CFG=3
M  V30 9 1 6 10
M  V30 10 2 7 11
M  V30 11 1 8 12
M  V30 12 2 10 13
M  V30 13 1 12 14
M  V30 14 1 12 15
M  V30 15 1 11 13
M  V30 END BOND
M  V30 BEGIN COLLECTION
M  V30 MDLV30/STERAC1 ATOMS=(1 5)
M  V30 END COLLECTION
M  V30 END CTAB
M  END
>  <Molecule Name>
Benzoic acid, 4-methyl-2-pentyl ester

>  <Activity Label>
0

>  <SMILES>
CC(C)CC(C)OC(c1ccccc1)=O

>  <Molecular Formula>
C13H18O2

>  <InChIKey>
WMNCKJFVKMDUJQ-UHFFFAOYSA-N

>  <Repellency>
Inactive

>  <Reference DOI>
10.3390/toxics11100837

>  <Target Organism>
Not applied

$$$$
Compound 626
Actelion Java MolfileCreator 2.0

  0  0  0  0  0  0              0 V3000
M  V30 BEGIN CTAB
M  V30 COUNTS 15 15 0 0 0
M  V30 BEGIN ATOM
M  V30 1 O 0.0 0.0 0.0 0
M  V30 2 C 0.0 -1.4996 0.0 0
M  V30 3 O 1.2989 -2.2554 0.0 0
M  V30 4 C -1.2989 -2.2554 0.0 0 CFG=2
M  V30 5 C 2.5978 -1.5114 0.0 0
M  V30 6 C -1.2989 -3.7551 0.0 0
M  V30 7 C -2.5978 -1.5114 0.0 0
M  V30 8 C -2.5978 -4.5108 0.0 0
M  V30 9 C 0.0 -4.499 0.0 0
M  V30 10 C -3.8968 -2.2672 0.0 0
M  V30 11 C -2.5978 -6.0105 0.0 0
M  V30 12 C 0.0 -5.9987 0.0 0
M  V30 13 C -5.1957 -1.5233 0.0 0
M  V30 14 C -1.2989 -6.7544 0.0 0
M  V30 15 C -6.4947 -2.279 0.0 0
M  V30 END ATOM
M  V30 BEGIN BOND
M  V30 1 2 1 2
M  V30 2 1 2 3
M  V30 3 1 2 4
M  V30 4 1 3 5
M  V30 5 1 4 6
M  V30 6 1 4 7 CFG=3
M  V30 7 1 6 8
M  V30 8 1 6 9
M  V30 9 1 7 10
M  V30 10 1 8 11
M  V30 11 1 9 12
M  V30 12 1 10 13
M  V30 13 1 11 14
M  V30 14 1 13 15
M  V30 15 1 12 14
M  V30 END BOND
M  V30 BEGIN COLLECTION
M  V30 MDLV30/STERAC1 ATOMS=(1 4)
M  V30 END COLLECTION
M  V30 END CTAB
M  END
>  <Molecule Name>
Cyclohexylcaproic acid, methyl ester

>  <Activity Label>
0

>  <SMILES>
CCCCC(C1CCCCC1)C(OC)=O

>  <Molecular Formula>
C13H24O2

>  <InChIKey>
WSJPJDGSWYBBNZ-UHFFFAOYSA-N

>  <Repellency>
Inactive

>  <Reference DOI>
10.3390/toxics11100837

>  <Target Organism>
Not applied

$$$$
Compound 627
Actelion Java MolfileCreator 2.0

  0  0  0  0  0  0              0 V3000
M  V30 BEGIN CTAB
M  V30 COUNTS 15 15 0 0 0
M  V30 BEGIN ATOM
M  V30 1 O 0.0 0.0 0.0 0
M  V30 2 C 0.0 -1.5012 0.0 0
M  V30 3 O 1.3003 -2.2459 0.0 0
M  V30 4 C -1.3003 -2.2459 0.0 0 CFG=1
M  V30 5 C 2.6006 -1.5012 0.0 0
M  V30 6 C -1.3003 -3.7472 0.0 0
M  V30 7 C -2.6006 -1.5012 0.0 0
M  V30 8 C 3.9009 -2.2459 0.0 0
M  V30 9 C -2.6006 -4.4919 0.0 0
M  V30 10 C 0.0 -4.4919 0.0 0
M  V30 11 C -3.9009 -2.2459 0.0 0
M  V30 12 C 5.2012 -1.5012 0.0 0
M  V30 13 C -2.6006 -5.9932 0.0 0
M  V30 14 C 0.0 -5.9932 0.0 0
M  V30 15 C -1.3003 -6.7497 0.0 0
M  V30 END ATOM
M  V30 BEGIN BOND
M  V30 1 2 1 2
M  V30 2 1 2 3
M  V30 3 1 2 4
M  V30 4 1 3 5
M  V30 5 1 4 6
M  V30 6 1 4 7 CFG=1
M  V30 7 1 5 8
M  V30 8 2 6 9
M  V30 9 1 6 10
M  V30 10 1 7 11
M  V30 11 2 8 12
M  V30 12 1 9 13
M  V30 13 2 10 14
M  V30 14 2 13 15
M  V30 15 1 14 15
M  V30 END BOND
M  V30 BEGIN COLLECTION
M  V30 MDLV30/STERAC1 ATOMS=(1 4)
M  V30 END COLLECTION
M  V30 END CTAB
M  END
>  <Molecule Name>
alpha-Phenylbutyric acid, allyl ester

>  <Activity Label>
0

>  <SMILES>
CCC(C(OCC=C)=O)c1ccccc1

>  <Molecular Formula>
C13H16O2

>  <InChIKey>
VFIPULGQSAEZRG-UHFFFAOYSA-N

>  <Repellency>
Inactive

>  <Reference DOI>
10.3390/toxics11100837

>  <Target Organism>
Not applied

$$$$
Compound 628
Actelion Java MolfileCreator 2.0

  0  0  0  0  0  0              0 V3000
M  V30 BEGIN CTAB
M  V30 COUNTS 15 15 0 0 0
M  V30 BEGIN ATOM
M  V30 1 O 0.0 0.0 0.0 0
M  V30 2 C 0.0 -1.5012 0.0 0
M  V30 3 O 1.3003 -2.2459 0.0 0
M  V30 4 C -1.3003 -2.2459 0.0 0 CFG=2
M  V30 5 C 2.6006 -1.5012 0.0 0
M  V30 6 C -1.3003 -3.7472 0.0 0
M  V30 7 C -2.6006 -1.5012 0.0 0
M  V30 8 C 3.9009 -2.2459 0.0 0
M  V30 9 C -2.6006 -4.4919 0.0 0
M  V30 10 C 0.0 -4.4919 0.0 0
M  V30 11 C -3.9009 -2.2459 0.0 0
M  V30 12 C 5.2012 -1.5012 0.0 0
M  V30 13 C -2.6006 -5.9932 0.0 0
M  V30 14 C 0.0 -5.9932 0.0 0
M  V30 15 C -1.3003 -6.7497 0.0 0
M  V30 END ATOM
M  V30 BEGIN BOND
M  V30 1 2 1 2
M  V30 2 1 2 3
M  V30 3 1 2 4
M  V30 4 1 3 5
M  V30 5 1 4 6
M  V30 6 1 4 7 CFG=3
M  V30 7 1 5 8
M  V30 8 1 6 9
M  V30 9 1 6 10
M  V30 10 1 7 11
M  V30 11 1 8 12
M  V30 12 1 9 13
M  V30 13 1 10 14
M  V30 14 1 13 15
M  V30 15 1 14 15
M  V30 END BOND
M  V30 BEGIN COLLECTION
M  V30 MDLV30/STERAC1 ATOMS=(1 4)
M  V30 END COLLECTION
M  V30 END CTAB
M  END
>  <Molecule Name>
alpha-Cyclohexylbutyric acid, propyl ester

>  <Activity Label>
0

>  <SMILES>
CCCOC(C(CC)C1CCCCC1)=O

>  <Molecular Formula>
C13H24O2

>  <InChIKey>
CEQUDTBFDFXYOJ-UHFFFAOYSA-N

>  <Repellency>
Inactive

>  <Reference DOI>
10.3390/toxics11100837

>  <Target Organism>
Not applied

$$$$
Compound 629
Actelion Java MolfileCreator 2.0

  0  0  0  0  0  0              0 V3000
M  V30 BEGIN CTAB
M  V30 COUNTS 15 15 0 0 0
M  V30 BEGIN ATOM
M  V30 1 O 0.0 0.0 0.0 0
M  V30 2 C 0.0 1.5008 0.0 0
M  V30 3 O -1.2999 2.2454 0.0 0
M  V30 4 C 1.2999 2.2454 0.0 0
M  V30 5 C -2.5999 1.5008 0.0 0
M  V30 6 C 2.5999 1.5008 0.0 0
M  V30 7 C 1.2999 3.7463 0.0 0
M  V30 8 C -3.8999 2.2572 0.0 0
M  V30 9 C -2.5999 0.0 0.0 0
M  V30 10 C -5.1999 1.5127 0.0 0
M  V30 11 C -3.8999 -0.7445 0.0 0
M  V30 12 C -5.1999 0.0118 0.0 0
M  V30 13 C -5.9444 2.8126 0.0 0
M  V30 14 C -6.7008 1.5127 0.0 0
M  V30 15 C -3.8999 -2.2454 0.0 0
M  V30 END ATOM
M  V30 BEGIN BOND
M  V30 1 2 1 2
M  V30 2 1 2 3
M  V30 3 1 2 4
M  V30 4 1 3 5
M  V30 5 2 4 6
M  V30 6 1 4 7
M  V30 7 1 5 8
M  V30 8 1 5 9
M  V30 9 1 8 10
M  V30 10 1 9 11
M  V30 11 1 10 12
M  V30 12 1 10 13
M  V30 13 1 10 14
M  V30 14 1 11 15
M  V30 15 1 11 12
M  V30 END BOND
M  V30 END CTAB
M  END
>  <Molecule Name>
Methacrylic acid, 3,3,5-trimethylcyclohexyl ester

>  <Activity Label>
0

>  <SMILES>
CC(C1)CC(C)(C)CC1OC(C(C)=C)=O

>  <Molecular Formula>
C13H22O2

>  <InChIKey>
DABQKEQFLJIRHU-UHFFFAOYSA-N

>  <Repellency>
Inactive

>  <Reference DOI>
10.3390/toxics11100837

>  <Target Organism>
Not applied

$$$$
Compound 630
Actelion Java MolfileCreator 2.0

  0  0  0  0  0  0              0 V3000
M  V30 BEGIN CTAB
M  V30 COUNTS 15 15 0 0 0
M  V30 BEGIN ATOM
M  V30 1 O 0.0 0.0 0.0 0
M  V30 2 C -1.3002 -0.7447 0.0 0
M  V30 3 C 1.3002 -0.7447 0.0 0
M  V30 4 C -2.6005 0.0118 0.0 0
M  V30 5 C -1.3002 -2.2459 0.0 0
M  V30 6 C 2.6005 0.0 0.0 0
M  V30 7 C -3.9008 -0.7328 0.0 0
M  V30 8 C -2.6005 -2.9906 0.0 0
M  V30 9 C 3.9008 -0.7447 0.0 0
M  V30 10 C -3.9008 -2.2341 0.0 0
M  V30 11 C 5.2011 0.0 0.0 0
M  V30 12 C -5.2011 -2.9788 0.0 0
M  V30 13 C 6.5014 -0.7447 0.0 0
M  V30 14 C -6.5014 -2.2223 0.0 0
M  V30 15 O -7.8017 -2.967 0.0 0
M  V30 END ATOM
M  V30 BEGIN BOND
M  V30 1 1 1 2
M  V30 2 1 1 3
M  V30 3 2 2 4
M  V30 4 1 2 5
M  V30 5 1 3 6
M  V30 6 1 4 7
M  V30 7 2 5 8
M  V30 8 1 6 9
M  V30 9 2 7 10
M  V30 10 1 9 11
M  V30 11 1 10 12
M  V30 12 1 11 13
M  V30 13 1 12 14
M  V30 14 1 14 15
M  V30 15 1 8 10
M  V30 END BOND
M  V30 END CTAB
M  END
>  <Molecule Name>
p-Pentoxyphenethyl alcohol

>  <Activity Label>
0

>  <SMILES>
CCCCCOc1ccc(CCO)cc1

>  <Molecular Formula>
C13H20O2

>  <InChIKey>
BGECGLYCRBBUMB-UHFFFAOYSA-N

>  <Repellency>
Inactive

>  <Reference DOI>
10.3390/toxics11100837

>  <Target Organism>
Not applied

$$$$
Compound 631
Actelion Java MolfileCreator 2.0

  0  0  0  0  0  0              0 V3000
M  V30 BEGIN CTAB
M  V30 COUNTS 15 15 0 0 0
M  V30 BEGIN ATOM
M  V30 1 O 0.0 0.0 0.0 0
M  V30 2 C -1.2992 0.7441 0.0 0
M  V30 3 C 1.2992 0.7441 0.0 0
M  V30 4 O -2.5985 -0.0118 0.0 0
M  V30 5 C -1.2992 2.2442 0.0 0
M  V30 6 C 2.5985 -0.0118 0.0 0
M  V30 7 C -3.8978 0.7323 0.0 0
M  V30 8 C 0.0 2.9883 0.0 0
M  V30 9 C -5.1971 -0.0236 0.0 0
M  V30 10 C 0.0 4.4884 0.0 0
M  V30 11 C 1.2992 5.2325 0.0 0
M  V30 12 C -1.2992 5.2443 0.0 0
M  V30 13 C 1.2992 6.7326 0.0 0
M  V30 14 C -1.2992 6.7444 0.0 0
M  V30 15 C 0.0 7.4885 0.0 0
M  V30 END ATOM
M  V30 BEGIN BOND
M  V30 1 1 1 2
M  V30 2 1 1 3
M  V30 3 1 2 4
M  V30 4 1 2 5
M  V30 5 1 3 6
M  V30 6 1 4 7
M  V30 7 2 5 8 CFG=2
M  V30 8 1 7 9
M  V30 9 1 8 10
M  V30 10 2 10 11
M  V30 11 1 10 12
M  V30 12 1 11 13
M  V30 13 2 12 14
M  V30 14 2 13 15
M  V30 15 1 14 15
M  V30 END BOND
M  V30 END CTAB
M  END
>  <Molecule Name>
Cinnamaldehyde diethyl acetal

>  <Activity Label>
0

>  <SMILES>
CCOC(C=Cc1ccccc1)OCC

>  <Molecular Formula>
C13H18O2

>  <InChIKey>
VYKDEWVAUWARRX-UHFFFAOYSA-N

>  <Repellency>
Inactive

>  <Reference DOI>
10.3390/toxics11100837

>  <Target Organism>
Not applied

$$$$
Compound 632
Actelion Java MolfileCreator 2.0

  0  0  0  0  0  0              0 V3000
M  V30 BEGIN CTAB
M  V30 COUNTS 15 15 0 0 0
M  V30 BEGIN ATOM
M  V30 1 Cl 0.0 0.0 0.0 0
M  V30 2 C -1.3009 -0.7451 0.0 0
M  V30 3 C -2.6019 0.0 0.0 0
M  V30 4 C -1.3009 -2.2471 0.0 0
M  V30 5 C -3.9029 -0.7451 0.0 0
M  V30 6 C -2.6019 -2.9922 0.0 0
M  V30 7 C -5.2039 0.0 0.0 0
M  V30 8 C -3.9029 -2.2471 0.0 0
M  V30 9 O -5.2039 1.502 0.0 0
M  V30 10 O -6.5049 -0.7451 0.0 0
M  V30 11 C -7.8059 0.0 0.0 0
M  V30 12 C -9.1069 -0.7451 0.0 0
M  V30 13 C -10.4079 0.0 0.0 0
M  V30 14 C -10.4079 1.502 0.0 0
M  V30 15 C -11.7088 -0.7451 0.0 0
M  V30 END ATOM
M  V30 BEGIN BOND
M  V30 1 1 1 2
M  V30 2 2 2 3
M  V30 3 1 2 4
M  V30 4 1 3 5
M  V30 5 2 4 6
M  V30 6 1 5 7
M  V30 7 2 5 8
M  V30 8 2 7 9
M  V30 9 1 7 10
M  V30 10 1 10 11
M  V30 11 1 11 12
M  V30 12 1 12 13
M  V30 13 1 13 14
M  V30 14 1 13 15
M  V30 15 1 6 8
M  V30 END BOND
M  V30 END CTAB
M  END
>  <Molecule Name>
m-Chlorobenzoic acid, iso-amyl ester

>  <Activity Label>
0

>  <SMILES>
CC(C)CCOC(c1cccc(Cl)c1)=O

>  <Molecular Formula>
C12H15O2Cl

>  <InChIKey>
OAGLWNCLEPDCLB-UHFFFAOYSA-N

>  <Repellency>
Inactive

>  <Reference DOI>
10.3390/toxics11100837

>  <Target Organism>
Not applied

$$$$
Compound 633
Actelion Java MolfileCreator 2.0

  0  0  0  0  0  0              0 V3000
M  V30 BEGIN CTAB
M  V30 COUNTS 15 15 0 0 0
M  V30 BEGIN ATOM
M  V30 1 Cl 0.0 0.0 0.0 0
M  V30 2 C 0.0 -1.5014 0.0 0
M  V30 3 C 1.3004 -2.258 0.0 0
M  V30 4 C -1.3004 -2.2462 0.0 0
M  V30 5 O 2.6009 -1.5132 0.0 0
M  V30 6 C 1.3004 -3.7595 0.0 0
M  V30 7 C -1.3004 -3.7477 0.0 0
M  V30 8 C 3.9014 -2.258 0.0 0
M  V30 9 C 0.0 -4.5043 0.0 0
M  V30 10 Cl -2.6009 -4.4925 0.0 0
M  V30 11 C 5.2018 -1.5132 0.0 0
M  V30 12 O 6.5023 -2.258 0.0 0
M  V30 13 C 7.8028 -1.5132 0.0 0
M  V30 14 C 9.1032 -2.258 0.0 0
M  V30 15 Cl 10.4037 -1.5132 0.0 0
M  V30 END ATOM
M  V30 BEGIN BOND
M  V30 1 1 1 2
M  V30 2 2 2 3
M  V30 3 1 2 4
M  V30 4 1 3 5
M  V30 5 1 3 6
M  V30 6 2 4 7
M  V30 7 1 5 8
M  V30 8 2 6 9
M  V30 9 1 7 10
M  V30 10 1 8 11
M  V30 11 1 11 12
M  V30 12 1 12 13
M  V30 13 1 13 14
M  V30 14 1 14 15
M  V30 15 1 7 9
M  V30 END BOND
M  V30 END CTAB
M  END
>  <Molecule Name>
1-(2-Chloroethoxy)-2-(2,4-dichlorophenoxy)ethane

>  <Activity Label>
0

>  <SMILES>
ClCCOCCOc(ccc(Cl)c1)c1Cl

>  <Molecular Formula>
C10H11O2Cl3

>  <InChIKey>
BTBBLXFCTXJDAC-UHFFFAOYSA-N

>  <Repellency>
Inactive

>  <Reference DOI>
10.3390/toxics11100837

>  <Target Organism>
Not applied

$$$$
Compound 634
Actelion Java MolfileCreator 2.0

  0  0  0  0  0  0              0 V3000
M  V30 BEGIN CTAB
M  V30 COUNTS 15 15 0 0 0
M  V30 BEGIN ATOM
M  V30 1 O 0.0 0.0 0.0 0
M  V30 2 C 0.0 1.4998 0.0 0 CFG=2
M  V30 3 C 1.2991 2.2439 0.0 0
M  V30 4 C -1.2991 2.2439 0.0 0
M  V30 5 C 2.5982 1.488 0.0 0
M  V30 6 C -2.5982 1.488 0.0 0
M  V30 7 C 2.5982 -0.0118 0.0 0
M  V30 8 C 3.8973 2.232 0.0 0
M  V30 9 C -3.8973 2.232 0.0 0
M  V30 10 C 3.8973 -0.7676 0.0 0
M  V30 11 C 5.1964 1.488 0.0 0
M  V30 12 C -5.1964 1.4762 0.0 0
M  V30 13 C 5.1964 -0.0118 0.0 0
M  V30 14 C -6.4955 2.2202 0.0 0
M  V30 15 C -7.7946 1.4644 0.0 0
M  V30 END ATOM
M  V30 BEGIN BOND
M  V30 1 1 2 1 CFG=1
M  V30 2 1 2 3
M  V30 3 1 2 4
M  V30 4 1 3 5
M  V30 5 1 4 6
M  V30 6 2 5 7
M  V30 7 1 5 8
M  V30 8 1 6 9
M  V30 9 1 7 10
M  V30 10 2 8 11
M  V30 11 1 9 12
M  V30 12 2 10 13
M  V30 13 1 12 14
M  V30 14 1 14 15
M  V30 15 1 11 13
M  V30 END BOND
M  V30 BEGIN COLLECTION
M  V30 MDLV30/STERAC1 ATOMS=(1 2)
M  V30 END COLLECTION
M  V30 END CTAB
M  END
>  <Molecule Name>
1-Phenyl-2-octanol

>  <Activity Label>
0

>  <SMILES>
CCCCCCC(Cc1ccccc1)O

>  <Molecular Formula>
C14H22O

>  <InChIKey>
AWLDTWVEFFLZOO-UHFFFAOYSA-N

>  <Repellency>
Inactive

>  <Reference DOI>
10.3390/toxics11100837

>  <Target Organism>
Not applied

$$$$
Compound 635
Actelion Java MolfileCreator 2.0

  0  0  0  0  0  0              0 V3000
M  V30 BEGIN CTAB
M  V30 COUNTS 15 15 0 0 0
M  V30 BEGIN ATOM
M  V30 1 O 0.0 0.0 0.0 0
M  V30 2 C 0.0 -1.4988 0.0 0
M  V30 3 C -1.2982 -2.2542 0.0 0
M  V30 4 C 1.2982 -2.2542 0.0 0
M  V30 5 C -1.2982 -3.7531 0.0 0
M  V30 6 C -2.5965 -1.4988 0.0 0
M  V30 7 C 2.0536 -0.9559 0.0 0
M  V30 8 C 2.5965 -3.0096 0.0 0
M  V30 9 C 0.5547 -3.5525 0.0 0
M  V30 10 C -2.5965 -4.4966 0.0 0
M  V30 11 C 0.0 -4.5085 0.0 0
M  V30 12 C -3.8947 -2.2424 0.0 0
M  V30 13 C -2.5965 0.0 0.0 0
M  V30 14 C -3.8947 -3.7531 0.0 0
M  V30 15 C -5.193 -4.4966 0.0 0
M  V30 END ATOM
M  V30 BEGIN BOND
M  V30 1 2 1 2
M  V30 2 1 2 3
M  V30 3 1 2 4
M  V30 4 2 3 5
M  V30 5 1 3 6
M  V30 6 1 4 7
M  V30 7 1 4 8
M  V30 8 1 4 9
M  V30 9 1 5 10
M  V30 10 1 5 11
M  V30 11 2 6 12
M  V30 12 1 6 13
M  V30 13 2 10 14
M  V30 14 1 14 15
M  V30 15 1 12 14
M  V30 END BOND
M  V30 END CTAB
M  END
>  <Molecule Name>
Mesityl tert-butyl ketone

>  <Activity Label>
0

>  <SMILES>
CC(C)(C)C(c1c(C)cc(C)cc1C)=O

>  <Molecular Formula>
C14H20O

>  <InChIKey>
WIJOXYWRGOPMTI-UHFFFAOYSA-N

>  <Repellency>
Inactive

>  <Reference DOI>
10.3390/toxics11100837

>  <Target Organism>
Not applied

$$$$
Compound 636
Actelion Java MolfileCreator 2.0

  0  0  0  0  0  0              0 V3000
M  V30 BEGIN CTAB
M  V30 COUNTS 15 15 0 0 0
M  V30 BEGIN ATOM
M  V30 1 O 0.0 0.0 0.0 0
M  V30 2 C 0.0 -1.5007 0.0 0
M  V30 3 C -1.2998 -2.2451 0.0 0
M  V30 4 C 1.2998 -2.2451 0.0 0
M  V30 5 C -2.5996 -1.5007 0.0 0
M  V30 6 C -1.2998 -3.7458 0.0 0
M  V30 7 C -3.8994 -2.2451 0.0 0
M  V30 8 C 0.2008 -3.7458 0.0 0
M  V30 9 C -1.2998 -5.2465 0.0 0
M  V30 10 C -2.8005 -3.7458 0.0 0
M  V30 11 C -5.1992 -1.4888 0.0 0
M  V30 12 C -3.8994 -3.7458 0.0 0
M  V30 13 C -6.4991 -2.2333 0.0 0
M  V30 14 C -5.1992 -4.4902 0.0 0
M  V30 15 C -6.4991 -3.734 0.0 0
M  V30 END ATOM
M  V30 BEGIN BOND
M  V30 1 2 1 2
M  V30 2 1 2 3
M  V30 3 1 2 4
M  V30 4 2 3 5 CFG=2
M  V30 5 1 3 6
M  V30 6 1 5 7
M  V30 7 1 6 8
M  V30 8 1 6 9
M  V30 9 1 6 10
M  V30 10 2 7 11
M  V30 11 1 7 12
M  V30 12 1 11 13
M  V30 13 2 12 14
M  V30 14 2 13 15
M  V30 15 1 14 15
M  V30 END BOND
M  V30 END CTAB
M  END
>  <Molecule Name>
Benzal neopentyl methyl ketone

>  <Activity Label>
0

>  <SMILES>
CC(C)(C)C(C(C)=O)=Cc1ccccc1

>  <Molecular Formula>
C14H18O

>  <InChIKey>
NCBPWJNAOVZJGI-UHFFFAOYSA-N

>  <Repellency>
Inactive

>  <Reference DOI>
10.3390/toxics11100837

>  <Target Organism>
Not applied

$$$$
Compound 637
Actelion Java MolfileCreator 2.0

  0  0  0  0  0  0              0 V3000
M  V30 BEGIN CTAB
M  V30 COUNTS 15 15 0 0 0
M  V30 BEGIN ATOM
M  V30 1 Cl 0.0 0.0 0.0 0
M  V30 2 C 0.0 -1.5014 0.0 0
M  V30 3 C 1.3004 -2.258 0.0 0
M  V30 4 C -1.3004 -2.2462 0.0 0
M  V30 5 O 2.6009 -1.5132 0.0 0
M  V30 6 C 1.3004 -3.7595 0.0 0
M  V30 7 C -1.3004 -3.7477 0.0 0
M  V30 8 C 3.9014 -2.258 0.0 0
M  V30 9 C 0.0 -4.5043 0.0 0
M  V30 10 C -2.6009 -4.4925 0.0 0
M  V30 11 C 5.2018 -1.5132 0.0 0
M  V30 12 C -1.8561 -5.7929 0.0 0
M  V30 13 C -3.9014 -5.2373 0.0 0
M  V30 14 C -3.3457 -3.192 0.0 0
M  V30 15 Cl 6.5023 -2.258 0.0 0
M  V30 END ATOM
M  V30 BEGIN BOND
M  V30 1 1 1 2
M  V30 2 2 2 3
M  V30 3 1 2 4
M  V30 4 1 3 5
M  V30 5 1 3 6
M  V30 6 2 4 7
M  V30 7 1 5 8
M  V30 8 2 6 9
M  V30 9 1 7 10
M  V30 10 1 8 11
M  V30 11 1 10 12
M  V30 12 1 10 13
M  V30 13 1 10 14
M  V30 14 1 11 15
M  V30 15 1 7 9
M  V30 END BOND
M  V30 END CTAB
M  END
>  <Molecule Name>
4-tert-Butyl-2-chlorophenyl 2-chloroethyl ether

>  <Activity Label>
0

>  <SMILES>
CC(C)(C)c(cc1)cc(Cl)c1OCCCl

>  <Molecular Formula>
C12H16OCl2

>  <InChIKey>
XFUFWZSWAIXWHV-UHFFFAOYSA-N

>  <Repellency>
Inactive

>  <Reference DOI>
10.3390/toxics11100837

>  <Target Organism>
Not applied

$$$$
Compound 638
Actelion Java MolfileCreator 2.0

  0  0  0  0  0  0              0 V3000
M  V30 BEGIN CTAB
M  V30 COUNTS 15 15 0 0 0
M  V30 BEGIN ATOM
M  V30 1 Cl 0.0 0.0 0.0 0
M  V30 2 C 0.0 -1.5014 0.0 0
M  V30 3 C -1.3004 -2.2462 0.0 0
M  V30 4 C 1.3004 -2.258 0.0 0
M  V30 5 O -2.6009 -1.5014 0.0 0
M  V30 6 C -1.3004 -3.7476 0.0 0
M  V30 7 C 1.3004 -3.7595 0.0 0
M  V30 8 C -3.9013 -2.2462 0.0 0
M  V30 9 C 0.0 -4.4925 0.0 0
M  V30 10 C 2.6009 -4.5161 0.0 0
M  V30 11 C -5.2018 -1.5014 0.0 0
M  V30 12 C 3.3457 -3.2156 0.0 0
M  V30 13 C 3.9013 -5.2727 0.0 0
M  V30 14 C 1.8561 -5.8166 0.0 0
M  V30 15 C -6.5023 -2.2462 0.0 0
M  V30 END ATOM
M  V30 BEGIN BOND
M  V30 1 1 1 2
M  V30 2 2 2 3
M  V30 3 1 2 4
M  V30 4 1 3 5
M  V30 5 1 3 6
M  V30 6 2 4 7
M  V30 7 1 5 8
M  V30 8 2 6 9
M  V30 9 1 7 10
M  V30 10 1 8 11
M  V30 11 1 10 12
M  V30 12 1 10 13
M  V30 13 1 10 14
M  V30 14 2 11 15
M  V30 15 1 7 9
M  V30 END BOND
M  V30 END CTAB
M  END
>  <Molecule Name>
Allyl 4-tert-butyl-2-chlorophenyl ether

>  <Activity Label>
0

>  <SMILES>
CC(C)(C)c(cc1)cc(Cl)c1OCC=C

>  <Molecular Formula>
C13H17OCl

>  <InChIKey>
PGNOBUUOXZBAJQ-UHFFFAOYSA-N

>  <Repellency>
Inactive

>  <Reference DOI>
10.3390/toxics11100837

>  <Target Organism>
Not applied

$$$$
Compound 639
Actelion Java MolfileCreator 2.0

  0  0  0  0  0  0              0 V3000
M  V30 BEGIN CTAB
M  V30 COUNTS 15 15 0 0 0
M  V30 BEGIN ATOM
M  V30 1 Cl 0.0 0.0 0.0 0
M  V30 2 C -1.3004 0.7448 0.0 0
M  V30 3 C -1.3004 2.2462 0.0 0
M  V30 4 C -2.6009 0.0 0.0 0
M  V30 5 O -3.9014 0.7448 0.0 0
M  V30 6 C -5.2018 0.0 0.0 0
M  V30 7 C -6.5023 0.7566 0.0 0
M  V30 8 C -5.2018 -1.5014 0.0 0
M  V30 9 C -7.8028 0.0118 0.0 0
M  V30 10 C -6.5023 -2.2462 0.0 0
M  V30 11 C -7.8028 -1.4896 0.0 0
M  V30 12 C -9.1032 -2.2344 0.0 0
M  V30 13 C -8.3584 -3.5349 0.0 0
M  V30 14 C -10.4037 -2.9792 0.0 0
M  V30 15 C -9.848 -0.9339 0.0 0
M  V30 END ATOM
M  V30 BEGIN BOND
M  V30 1 1 1 2
M  V30 2 2 2 3
M  V30 3 1 2 4
M  V30 4 1 4 5
M  V30 5 1 5 6
M  V30 6 2 6 7
M  V30 7 1 6 8
M  V30 8 1 7 9
M  V30 9 2 8 10
M  V30 10 2 9 11
M  V30 11 1 11 12
M  V30 12 1 12 13
M  V30 13 1 12 14
M  V30 14 1 12 15
M  V30 15 1 10 11
M  V30 END BOND
M  V30 END CTAB
M  END
>  <Molecule Name>
4-tert-Butyl phenyl 2-chloro-allyl ether

>  <Activity Label>
0

>  <SMILES>
CC(C)(C)c(cc1)ccc1OCC(Cl)=C

>  <Molecular Formula>
C13H17OCl

>  <InChIKey>
PELFJOMWJKRZNF-UHFFFAOYSA-N

>  <Repellency>
Inactive

>  <Reference DOI>
10.3390/toxics11100837

>  <Target Organism>
Not applied

$$$$
Compound 640
Actelion Java MolfileCreator 2.0

  0  0  0  0  0  0              0 V3000
M  V30 BEGIN CTAB
M  V30 COUNTS 15 15 0 0 0
M  V30 BEGIN ATOM
M  V30 1 O 0.0 0.0 0.0 0
M  V30 2 C 0.0 1.5001 0.0 0
M  V30 3 O -1.2993 2.2442 0.0 0
M  V30 4 C 1.2993 2.2442 0.0 0
M  V30 5 C -2.5986 1.4883 0.0 0
M  V30 6 C 2.5986 1.4883 0.0 0
M  V30 7 C 1.2993 3.7444 0.0 0
M  V30 8 O 2.5986 -0.0118 0.0 0
M  V30 9 O 3.8979 2.2324 0.0 0
M  V30 10 C 2.5986 4.5004 0.0 0
M  V30 11 C 5.1973 1.4765 0.0 0
M  V30 12 O 2.7522 5.9887 0.0 0
M  V30 13 C 3.9688 3.8861 0.0 0
M  V30 14 C 4.2169 6.2958 0.0 0
M  V30 15 C 4.9728 4.9965 0.0 0
M  V30 END ATOM
M  V30 BEGIN BOND
M  V30 1 2 1 2
M  V30 2 1 2 3
M  V30 3 1 2 4
M  V30 4 1 3 5
M  V30 5 1 4 6
M  V30 6 2 4 7
M  V30 7 2 6 8
M  V30 8 1 6 9
M  V30 9 1 7 10
M  V30 10 1 9 11
M  V30 11 1 10 12
M  V30 12 2 10 13
M  V30 13 1 12 14
M  V30 14 1 13 15
M  V30 15 2 14 15
M  V30 END BOND
M  V30 END CTAB
M  END
>  <Molecule Name>
Furfurylidenemalonic acid, dimethyl ester

>  <Activity Label>
0

>  <SMILES>
COC(C(C(OC)=O)=Cc1ccc[o]1)=O

>  <Molecular Formula>
C10H10O5

>  <InChIKey>
RFTYRVYMGFNPTN-UHFFFAOYSA-N

>  <Repellency>
Inactive

>  <Reference DOI>
10.3390/toxics11100837

>  <Target Organism>
Not applied

$$$$
Compound 641
Actelion Java MolfileCreator 2.0

  0  0  0  0  0  0              0 V3000
M  V30 BEGIN CTAB
M  V30 COUNTS 15 15 0 0 0
M  V30 BEGIN ATOM
M  V30 1 O 0.0 0.0 0.0 0
M  V30 2 C 0.0 -1.5014 0.0 0
M  V30 3 O -1.3004 -2.2462 0.0 0
M  V30 4 C 1.3004 -2.2462 0.0 0
M  V30 5 C -2.6009 -1.5014 0.0 0
M  V30 6 C 2.6009 -1.5014 0.0 0
M  V30 7 C -3.9014 -2.2462 0.0 0
M  V30 8 C 3.9014 -2.2462 0.0 0
M  V30 9 O -5.2018 -1.5014 0.0 0
M  V30 10 C -6.5023 -2.2462 0.0 0
M  V30 11 C -7.8028 -1.4896 0.0 0
M  V30 12 C -6.5023 -3.7477 0.0 0
M  V30 13 C -9.1032 -2.2344 0.0 0
M  V30 14 C -7.8028 -4.4925 0.0 0
M  V30 15 C -9.1032 -3.7358 0.0 0
M  V30 END ATOM
M  V30 BEGIN BOND
M  V30 1 2 1 2
M  V30 2 1 2 3
M  V30 3 1 2 4
M  V30 4 1 3 5
M  V30 5 2 4 6
M  V30 6 1 5 7
M  V30 7 1 6 8
M  V30 8 1 7 9
M  V30 9 1 9 10
M  V30 10 2 10 11
M  V30 11 1 10 12
M  V30 12 1 11 13
M  V30 13 2 12 14
M  V30 14 2 13 15
M  V30 15 1 14 15
M  V30 END BOND
M  V30 END CTAB
M  END
>  <Molecule Name>
Crotonic acid, 2-phenoxyethyl ester

>  <Activity Label>
0

>  <SMILES>
C/C=C/C(OCCOc1ccccc1)=O

>  <Molecular Formula>
C12H14O3

>  <InChIKey>
RQEPIAVWCRDQKM-QHHAFSJGSA-N

>  <Repellency>
Inactive

>  <Reference DOI>
10.3390/toxics11100837

>  <Target Organism>
Not applied

$$$$
Compound 642
Actelion Java MolfileCreator 2.0

  0  0  0  0  0  0              0 V3000
M  V30 BEGIN CTAB
M  V30 COUNTS 15 15 0 0 0
M  V30 BEGIN ATOM
M  V30 1 O 0.0 0.0 0.0 0
M  V30 2 C 0.0 -1.5014 0.0 0
M  V30 3 O -1.3004 -2.2462 0.0 0
M  V30 4 C 1.3004 -2.2462 0.0 0
M  V30 5 C -2.6009 -1.5014 0.0 0
M  V30 6 C 2.6009 -1.5014 0.0 0
M  V30 7 C -3.9014 -2.2462 0.0 0
M  V30 8 C 3.9014 -2.2462 0.0 0
M  V30 9 O -5.2018 -1.5014 0.0 0
M  V30 10 C -6.5023 -2.2462 0.0 0
M  V30 11 C -7.8028 -1.4896 0.0 0
M  V30 12 C -6.5023 -3.7477 0.0 0
M  V30 13 C -9.1032 -2.2344 0.0 0
M  V30 14 C -7.8028 -4.4925 0.0 0
M  V30 15 C -9.1032 -3.7358 0.0 0
M  V30 END ATOM
M  V30 BEGIN BOND
M  V30 1 2 1 2
M  V30 2 1 2 3
M  V30 3 1 2 4
M  V30 4 1 3 5
M  V30 5 1 4 6
M  V30 6 1 5 7
M  V30 7 1 6 8
M  V30 8 1 7 9
M  V30 9 1 9 10
M  V30 10 2 10 11
M  V30 11 1 10 12
M  V30 12 1 11 13
M  V30 13 2 12 14
M  V30 14 2 13 15
M  V30 15 1 14 15
M  V30 END BOND
M  V30 END CTAB
M  END
>  <Molecule Name>
Butyric acid, 2-phenoxyethyl ester

>  <Activity Label>
0

>  <SMILES>
CCCC(OCCOc1ccccc1)=O

>  <Molecular Formula>
C12H16O3

>  <InChIKey>
OOZDRLVUFHSKIQ-UHFFFAOYSA-N

>  <Repellency>
Inactive

>  <Reference DOI>
10.3390/toxics11100837

>  <Target Organism>
Not applied

$$$$
Compound 643
Actelion Java MolfileCreator 2.0

  0  0  0  0  0  0              0 V3000
M  V30 BEGIN CTAB
M  V30 COUNTS 15 15 0 0 0
M  V30 BEGIN ATOM
M  V30 1 O 0.0 0.0 0.0 0
M  V30 2 C 0.0 1.4985 0.0 0
M  V30 3 O -1.2979 2.2536 0.0 0
M  V30 4 C 1.2979 2.2536 0.0 0
M  V30 5 C -2.5958 1.4985 0.0 0
M  V30 6 C 2.5958 1.4985 0.0 0
M  V30 7 C 1.2979 3.7521 0.0 0
M  V30 8 C -3.8937 2.2536 0.0 0
M  V30 9 O 2.5958 0.0 0.0 0
M  V30 10 C 3.8937 2.2418 0.0 0
M  V30 11 C 2.5958 4.4955 0.0 0
M  V30 12 C -5.1916 1.4985 0.0 0
M  V30 13 C 3.8937 3.7403 0.0 0
M  V30 14 C -6.4895 2.2536 0.0 0
M  V30 15 C -7.7875 1.4985 0.0 0
M  V30 END ATOM
M  V30 BEGIN BOND
M  V30 1 2 1 2
M  V30 2 1 2 3
M  V30 3 1 2 4
M  V30 4 1 3 5
M  V30 5 2 4 6
M  V30 6 1 4 7
M  V30 7 1 5 8
M  V30 8 1 6 9
M  V30 9 1 6 10
M  V30 10 2 7 11
M  V30 11 1 8 12
M  V30 12 2 10 13
M  V30 13 1 12 14
M  V30 14 1 14 15
M  V30 15 1 11 13
M  V30 END BOND
M  V30 END CTAB
M  END
>  <Molecule Name>
Salicylic acid, amyl ester

>  <Activity Label>
0

>  <SMILES>
CCCCCOC(c(cccc1)c1O)=O

>  <Molecular Formula>
C12H16O3

>  <InChIKey>
RANVDUNFZBMTBK-UHFFFAOYSA-N

>  <Repellency>
Inactive

>  <Reference DOI>
10.3390/toxics11100837

>  <Target Organism>
Not applied

$$$$
Compound 644
Actelion Java MolfileCreator 2.0

  0  0  0  0  0  0              0 V3000
M  V30 BEGIN CTAB
M  V30 COUNTS 15 15 0 0 0
M  V30 BEGIN ATOM
M  V30 1 O 0.0 0.0 0.0 0
M  V30 2 C 0.0 1.5012 0.0 0
M  V30 3 O -1.3003 2.2459 0.0 0
M  V30 4 C 1.3003 2.2459 0.0 0
M  V30 5 C -2.6006 1.5012 0.0 0
M  V30 6 C 2.6006 1.5012 0.0 0
M  V30 7 C -3.9009 2.2459 0.0 0
M  V30 8 C -5.2012 1.5012 0.0 0
M  V30 9 C -6.5015 2.2578 0.0 0
M  V30 10 C -5.2012 0.0 0.0 0
M  V30 11 C -7.8018 1.513 0.0 0
M  V30 12 C -6.5015 -0.7447 0.0 0
M  V30 13 C -7.8018 0.0118 0.0 0
M  V30 14 O -9.1021 -0.7328 0.0 0
M  V30 15 C -9.1021 -2.2341 0.0 0
M  V30 END ATOM
M  V30 BEGIN BOND
M  V30 1 2 1 2
M  V30 2 1 2 3
M  V30 3 1 2 4
M  V30 4 1 3 5
M  V30 5 1 4 6
M  V30 6 1 5 7
M  V30 7 1 7 8
M  V30 8 2 8 9
M  V30 9 1 8 10
M  V30 10 1 9 11
M  V30 11 2 10 12
M  V30 12 2 11 13
M  V30 13 1 13 14
M  V30 14 1 14 15
M  V30 15 1 12 13
M  V30 END BOND
M  V30 END CTAB
M  END
>  <Molecule Name>
Propionic acid, p-methoxyphenethyl ester

>  <Activity Label>
0

>  <SMILES>
CCC(OCCc(cc1)ccc1OC)=O

>  <Molecular Formula>
C12H16O3

>  <InChIKey>
AVZBWTUFZLAUFT-UHFFFAOYSA-N

>  <Repellency>
Inactive

>  <Reference DOI>
10.3390/toxics11100837

>  <Target Organism>
Not applied

$$$$
Compound 645
Actelion Java MolfileCreator 2.0

  0  0  0  0  0  0              0 V3000
M  V30 BEGIN CTAB
M  V30 COUNTS 15 15 0 0 0
M  V30 BEGIN ATOM
M  V30 1 O 0.0 0.0 0.0 0
M  V30 2 C 0.0 -1.4994 0.0 0
M  V30 3 O 1.2987 -2.2551 0.0 0
M  V30 4 O -1.2987 -2.2551 0.0 0
M  V30 5 C 2.5975 -1.5112 0.0 0
M  V30 6 C -2.5975 -1.5112 0.0 0
M  V30 7 C 3.8962 -2.2669 0.0 0
M  V30 8 C -3.8962 -2.2669 0.0 0
M  V30 9 C 5.195 -1.523 0.0 0
M  V30 10 C 6.4938 -2.2787 0.0 0
M  V30 11 C 6.4938 -3.7782 0.0 0
M  V30 12 C 7.7925 -1.5348 0.0 0
M  V30 13 C 7.7925 -4.5338 0.0 0
M  V30 14 C 9.0913 -2.2787 0.0 0
M  V30 15 C 9.0913 -3.7782 0.0 0
M  V30 END ATOM
M  V30 BEGIN BOND
M  V30 1 2 1 2
M  V30 2 1 2 3
M  V30 3 1 2 4
M  V30 4 1 3 5
M  V30 5 1 4 6
M  V30 6 1 5 7
M  V30 7 1 6 8
M  V30 8 2 7 9 CFG=2
M  V30 9 1 9 10
M  V30 10 2 10 11
M  V30 11 1 10 12
M  V30 12 1 11 13
M  V30 13 2 12 14
M  V30 14 2 13 15
M  V30 15 1 14 15
M  V30 END BOND
M  V30 END CTAB
M  END
>  <Molecule Name>
Carbonic acid, cinnamyl ethyl ester

>  <Activity Label>
0

>  <SMILES>
CCOC(OCC=Cc1ccccc1)=O

>  <Molecular Formula>
C12H14O3

>  <InChIKey>
WYLLQLJZPWNHMA-UHFFFAOYSA-N

>  <Repellency>
Inactive

>  <Reference DOI>
10.3390/toxics11100837

>  <Target Organism>
Not applied

$$$$
Compound 646
Actelion Java MolfileCreator 2.0

  0  0  0  0  0  0              0 V3000
M  V30 BEGIN CTAB
M  V30 COUNTS 15 15 0 0 0
M  V30 BEGIN ATOM
M  V30 1 O 0.0 0.0 0.0 0
M  V30 2 C 0.0 -1.4994 0.0 0
M  V30 3 O 1.2987 -2.2551 0.0 0
M  V30 4 O -1.2987 -2.2551 0.0 0
M  V30 5 C 2.5975 -1.5112 0.0 0
M  V30 6 C -2.5975 -1.5112 0.0 0
M  V30 7 C 3.8962 -2.2669 0.0 0
M  V30 8 C -3.8962 -2.2669 0.0 0
M  V30 9 C 5.195 -1.523 0.0 0
M  V30 10 C 6.4938 -2.2787 0.0 0
M  V30 11 C 6.4938 -3.7782 0.0 0
M  V30 12 C 7.7925 -1.5348 0.0 0
M  V30 13 C 7.7925 -4.5338 0.0 0
M  V30 14 C 9.0913 -2.2787 0.0 0
M  V30 15 C 9.0913 -3.7782 0.0 0
M  V30 END ATOM
M  V30 BEGIN BOND
M  V30 1 2 1 2
M  V30 2 1 2 3
M  V30 3 1 2 4
M  V30 4 1 3 5
M  V30 5 1 4 6
M  V30 6 1 5 7
M  V30 7 1 6 8
M  V30 8 1 7 9
M  V30 9 1 9 10
M  V30 10 2 10 11
M  V30 11 1 10 12
M  V30 12 1 11 13
M  V30 13 2 12 14
M  V30 14 2 13 15
M  V30 15 1 14 15
M  V30 END BOND
M  V30 END CTAB
M  END
>  <Molecule Name>
Carbonic acid, 3-phenylpropyl ethyl ester

>  <Activity Label>
0

>  <SMILES>
CCOC(OCCCc1ccccc1)=O

>  <Molecular Formula>
C12H16O3

>  <InChIKey>
SLAKQTCFPPHFEF-UHFFFAOYSA-N

>  <Repellency>
Inactive

>  <Reference DOI>
10.3390/toxics11100837

>  <Target Organism>
Not applied

$$$$
Compound 647
Actelion Java MolfileCreator 2.0

  0  0  0  0  0  0              0 V3000
M  V30 BEGIN CTAB
M  V30 COUNTS 15 15 0 0 0
M  V30 BEGIN ATOM
M  V30 1 O 0.0 0.0 0.0 0
M  V30 2 C 0.0 -1.4998 0.0 0
M  V30 3 O 1.2991 -2.2557 0.0 0
M  V30 4 O -1.2991 -2.2557 0.0 0
M  V30 5 C 2.5982 -1.5116 0.0 0
M  V30 6 C -2.5982 -1.5116 0.0 0
M  V30 7 C 3.8973 -2.2675 0.0 0
M  V30 8 C 2.5982 -0.0118 0.0 0
M  V30 9 C -3.8973 -2.2675 0.0 0
M  V30 10 C 5.1964 -1.5234 0.0 0
M  V30 11 C 3.8973 0.7322 0.0 0
M  V30 12 C -5.1964 -1.5234 0.0 0
M  V30 13 C 5.1964 -0.0236 0.0 0
M  V30 14 C -6.4955 -2.2793 0.0 0
M  V30 15 C 6.4955 0.7204 0.0 0
M  V30 END ATOM
M  V30 BEGIN BOND
M  V30 1 2 1 2
M  V30 2 1 2 3
M  V30 3 1 2 4
M  V30 4 1 3 5
M  V30 5 1 4 6
M  V30 6 2 5 7
M  V30 7 1 5 8
M  V30 8 1 6 9
M  V30 9 1 7 10
M  V30 10 2 8 11
M  V30 11 1 9 12
M  V30 12 2 10 13
M  V30 13 1 12 14
M  V30 14 1 13 15
M  V30 15 1 11 13
M  V30 END BOND
M  V30 END CTAB
M  END
>  <Molecule Name>
Carbonic acid, p-tolyl butyl ester

>  <Activity Label>
0

>  <SMILES>
CCCCOC(Oc1ccc(C)cc1)=O

>  <Molecular Formula>
C12H16O3

>  <InChIKey>
XYWUNYDCDPVCNY-UHFFFAOYSA-N

>  <Repellency>
Inactive

>  <Reference DOI>
10.3390/toxics11100837

>  <Target Organism>
Not applied

$$$$
Compound 648
Actelion Java MolfileCreator 2.0

  0  0  0  0  0  0              0 V3000
M  V30 BEGIN CTAB
M  V30 COUNTS 15 15 0 0 0
M  V30 BEGIN ATOM
M  V30 1 O 0.0 0.0 0.0 0
M  V30 2 C 0.0 1.4992 0.0 0
M  V30 3 O 1.2985 2.243 0.0 0
M  V30 4 O -1.2985 2.243 0.0 0
M  V30 5 C 2.5971 1.4874 0.0 0
M  V30 6 C -2.5971 1.4874 0.0 0
M  V30 7 C 2.5971 -0.0118 0.0 0
M  V30 8 C 3.8957 2.2312 0.0 0
M  V30 9 C -3.8957 2.2312 0.0 0
M  V30 10 C 3.8957 -0.7673 0.0 0
M  V30 11 C 5.1943 1.4874 0.0 0
M  V30 12 C -3.8957 3.7305 0.0 0
M  V30 13 C -5.1943 1.4756 0.0 0
M  V30 14 C 5.1943 -0.0236 0.0 0
M  V30 15 C 6.4929 -0.7791 0.0 0
M  V30 END ATOM
M  V30 BEGIN BOND
M  V30 1 2 1 2
M  V30 2 1 2 3
M  V30 3 1 2 4
M  V30 4 1 3 5
M  V30 5 1 4 6
M  V30 6 2 5 7
M  V30 7 1 5 8
M  V30 8 1 6 9
M  V30 9 1 7 10
M  V30 10 2 8 11
M  V30 11 1 9 12
M  V30 12 1 9 13
M  V30 13 2 10 14
M  V30 14 1 14 15
M  V30 15 1 11 14
M  V30 END BOND
M  V30 END CTAB
M  END
>  <Molecule Name>
Carbonic acid, p-tolyl iso-butyl ester

>  <Activity Label>
0

>  <SMILES>
CC(C)COC(Oc1ccc(C)cc1)=O

>  <Molecular Formula>
C12H16O3

>  <InChIKey>
FSTJEGRHKRMKRW-UHFFFAOYSA-N

>  <Repellency>
Inactive

>  <Reference DOI>
10.3390/toxics11100837

>  <Target Organism>
Not applied

$$$$
Compound 649
Actelion Java MolfileCreator 2.0

  0  0  0  0  0  0              0 V3000
M  V30 BEGIN CTAB
M  V30 COUNTS 15 15 0 0 0
M  V30 BEGIN ATOM
M  V30 1 O 0.0 0.0 0.0 0
M  V30 2 C -1.2991 0.7558 0.0 0
M  V30 3 O -2.5982 0.0118 0.0 0
M  V30 4 C -1.2991 2.2557 0.0 0
M  V30 5 C -2.5982 -1.488 0.0 0
M  V30 6 C 0.0 2.9997 0.0 0
M  V30 7 C -3.8973 -2.2439 0.0 0
M  V30 8 O 1.2991 2.2439 0.0 0
M  V30 9 C 0.0 4.4996 0.0 0
M  V30 10 C 2.5982 2.9879 0.0 0
M  V30 11 C 3.8973 2.2321 0.0 0
M  V30 12 C 2.5982 4.4878 0.0 0
M  V30 13 C 5.1964 2.9761 0.0 0
M  V30 14 C 3.8973 5.2319 0.0 0
M  V30 15 C 5.1964 4.476 0.0 0
M  V30 END ATOM
M  V30 BEGIN BOND
M  V30 1 2 1 2
M  V30 2 1 2 3
M  V30 3 1 2 4
M  V30 4 1 3 5
M  V30 5 2 4 6
M  V30 6 1 5 7
M  V30 7 1 6 8
M  V30 8 1 6 9
M  V30 9 1 8 10
M  V30 10 2 10 11
M  V30 11 1 10 12
M  V30 12 1 11 13
M  V30 13 2 12 14
M  V30 14 2 13 15
M  V30 15 1 14 15
M  V30 END BOND
M  V30 END CTAB
M  END
>  <Molecule Name>
beta-Phenoxycrotonic acid, ethyl ester

>  <Activity Label>
0

>  <SMILES>
CCOC(/C=C(/C)\Oc1ccccc1)=O

>  <Molecular Formula>
C12H14O3

>  <InChIKey>
DKWQFPKKCZFFGC-KTKRTIGZSA-N

>  <Repellency>
Inactive

>  <Reference DOI>
10.3390/toxics11100837

>  <Target Organism>
Not applied

$$$$
Compound 650
Actelion Java MolfileCreator 2.0

  0  0  0  0  0  0              0 V3000
M  V30 BEGIN CTAB
M  V30 COUNTS 15 15 0 0 0
M  V30 BEGIN ATOM
M  V30 1 O 0.0 0.0 0.0 0
M  V30 2 C -1.2992 0.7441 0.0 0
M  V30 3 C 1.2992 0.7441 0.0 0
M  V30 4 O -2.5985 -0.0118 0.0 0
M  V30 5 C -1.2992 2.2442 0.0 0
M  V30 6 C 2.5985 -0.0118 0.0 0
M  V30 7 C -3.8978 0.7323 0.0 0
M  V30 8 C 0.0 3.0001 0.0 0
M  V30 9 C -2.5985 2.9883 0.0 0
M  V30 10 C -5.1971 -0.0236 0.0 0
M  V30 11 C 0.0 4.5002 0.0 0
M  V30 12 C -2.5985 4.4884 0.0 0
M  V30 13 C -1.2992 5.2443 0.0 0
M  V30 14 O -1.2992 6.7444 0.0 0
M  V30 15 C -2.5985 7.4885 0.0 0
M  V30 END ATOM
M  V30 BEGIN BOND
M  V30 1 1 1 2
M  V30 2 1 1 3
M  V30 3 1 2 4
M  V30 4 1 2 5
M  V30 5 1 3 6
M  V30 6 1 4 7
M  V30 7 2 5 8
M  V30 8 1 5 9
M  V30 9 1 7 10
M  V30 10 1 8 11
M  V30 11 2 9 12
M  V30 12 2 11 13
M  V30 13 1 13 14
M  V30 14 1 14 15
M  V30 15 1 12 13
M  V30 END BOND
M  V30 END CTAB
M  END
>  <Molecule Name>
Anisaldehyde diethyl acetal

>  <Activity Label>
0

>  <SMILES>
CCOC(c(cc1)ccc1OC)OCC

>  <Molecular Formula>
C12H18O3

>  <InChIKey>
FTTLMNXOYOVHAG-UHFFFAOYSA-N

>  <Repellency>
Inactive

>  <Reference DOI>
10.3390/toxics11100837

>  <Target Organism>
Not applied

$$$$
Compound 651
Actelion Java MolfileCreator 2.0

  0  0  0  0  0  0              0 V3000
M  V30 BEGIN CTAB
M  V30 COUNTS 15 15 0 0 0
M  V30 BEGIN ATOM
M  V30 1 Cl 0.0 0.0 0.0 0
M  V30 2 C -1.2985 0.7555 0.0 0
M  V30 3 C -1.2985 2.2548 0.0 0
M  V30 4 C -2.5971 0.0118 0.0 0
M  V30 5 C -2.5971 3.0103 0.0 0
M  V30 6 C -3.8957 0.7555 0.0 0
M  V30 7 C -3.8957 2.2666 0.0 0
M  V30 8 C -5.1943 3.0103 0.0 0
M  V30 9 O -5.1943 4.5096 0.0 0
M  V30 10 C -6.4929 2.2548 0.0 0
M  V30 11 C -7.7915 2.9985 0.0 0
M  V30 12 O -7.7915 4.4978 0.0 0
M  V30 13 O -9.0901 2.243 0.0 0
M  V30 14 C -10.3887 2.9867 0.0 0
M  V30 15 C -11.6873 2.2312 0.0 0
M  V30 END ATOM
M  V30 BEGIN BOND
M  V30 1 1 1 2
M  V30 2 2 2 3
M  V30 3 1 2 4
M  V30 4 1 3 5
M  V30 5 2 4 6
M  V30 6 2 5 7
M  V30 7 1 7 8
M  V30 8 2 8 9
M  V30 9 1 8 10
M  V30 10 1 10 11
M  V30 11 2 11 12
M  V30 12 1 11 13
M  V30 13 1 13 14
M  V30 14 1 14 15
M  V30 15 1 6 7
M  V30 END BOND
M  V30 END CTAB
M  END
>  <Molecule Name>
p-Chlorobenzoylacetic acid, ethyl ester

>  <Activity Label>
0

>  <SMILES>
CCOC(CC(c(cc1)ccc1Cl)=O)=O

>  <Molecular Formula>
C11H11O3Cl

>  <InChIKey>
DGCZHKABHPDNCC-UHFFFAOYSA-N

>  <Repellency>
Inactive

>  <Reference DOI>
10.3390/toxics11100837

>  <Target Organism>
Not applied

$$$$
Compound 652
Actelion Java MolfileCreator 2.0

  0  0  0  0  0  0              0 V3000
M  V30 BEGIN CTAB
M  V30 COUNTS 15 15 0 0 0
M  V30 BEGIN ATOM
M  V30 1 S 0.0 0.0 0.0 0
M  V30 2 O 0.7555 1.2985 0.0 0
M  V30 3 O -0.7437 1.2985 0.0 0
M  V30 4 O -1.2985 -0.7555 0.0 0
M  V30 5 C 1.2985 -0.7555 0.0 0
M  V30 6 C -2.5971 -0.0118 0.0 0
M  V30 7 C 2.5971 -0.0118 0.0 0
M  V30 8 C 1.2985 -2.2548 0.0 0
M  V30 9 C -3.8957 -0.7673 0.0 0
M  V30 10 C 3.8957 -0.7673 0.0 0
M  V30 11 C 2.5971 -3.0103 0.0 0
M  V30 12 C -5.1943 -0.0236 0.0 0
M  V30 13 C 3.8957 -2.2666 0.0 0
M  V30 14 C -6.4929 -0.7791 0.0 0
M  V30 15 C 5.1943 -3.0221 0.0 0
M  V30 END ATOM
M  V30 BEGIN BOND
M  V30 1 2 1 2
M  V30 2 2 1 3
M  V30 3 1 1 4
M  V30 4 1 1 5
M  V30 5 1 4 6
M  V30 6 2 5 7
M  V30 7 1 5 8
M  V30 8 1 6 9
M  V30 9 1 7 10
M  V30 10 2 8 11
M  V30 11 1 9 12
M  V30 12 2 10 13
M  V30 13 1 12 14
M  V30 14 1 13 15
M  V30 15 1 11 13
M  V30 END BOND
M  V30 END CTAB
M  END
>  <Molecule Name>
p-Toluenesulfonic acid, n-butyl ester

>  <Activity Label>
0

>  <SMILES>
CCCCOS(c1ccc(C)cc1)(=O)=O

>  <Molecular Formula>
C11H16O3S

>  <InChIKey>
QYJXDIUNDMRLAO-UHFFFAOYSA-N

>  <Repellency>
Inactive

>  <Reference DOI>
10.3390/toxics11100837

>  <Target Organism>
Not applied

$$$$
Compound 653
Actelion Java MolfileCreator 2.0

  0  0  0  0  0  0              0 V3000
M  V30 BEGIN CTAB
M  V30 COUNTS 15 15 0 0 0
M  V30 BEGIN ATOM
M  V30 1 N 0.0 0.0 0.0 0
M  V30 2 C 1.2989 -0.7557 0.0 0
M  V30 3 C 2.5978 -1.5114 0.0 0
M  V30 4 C 2.5978 -3.0111 0.0 0
M  V30 5 C 3.8968 -3.7669 0.0 0
M  V30 6 C 1.2989 -3.7551 0.0 0
M  V30 7 C 3.8968 -5.2666 0.0 0
M  V30 8 C 5.1957 -3.0229 0.0 0
M  V30 9 C 1.2989 -5.2548 0.0 0
M  V30 10 C 0.0 -2.9993 0.0 0
M  V30 11 C 2.5978 -6.0105 0.0 0
M  V30 12 C 6.4947 -3.7669 0.0 0
M  V30 13 C -1.2989 -3.7433 0.0 0
M  V30 14 C 2.5978 -7.5102 0.0 0
M  V30 15 C 3.8968 -8.2659 0.0 0
M  V30 END ATOM
M  V30 BEGIN BOND
M  V30 1 3 1 2
M  V30 2 1 2 3
M  V30 3 1 3 4
M  V30 4 2 4 5
M  V30 5 1 4 6
M  V30 6 1 5 7
M  V30 7 1 5 8
M  V30 8 2 6 9
M  V30 9 1 6 10
M  V30 10 2 7 11
M  V30 11 1 8 12
M  V30 12 1 10 13
M  V30 13 1 11 14
M  V30 14 1 14 15
M  V30 15 1 9 11
M  V30 END BOND
M  V30 END CTAB
M  END
>  <Molecule Name>
2,4,6-Triethylphenylacetonitrile

>  <Activity Label>
0

>  <SMILES>
CCc1cc(CC)c(CC#N)c(CC)c1

>  <Molecular Formula>
C14H19N

>  <InChIKey>
IUKFSXSUVKDECV-UHFFFAOYSA-N

>  <Repellency>
Inactive

>  <Reference DOI>
10.3390/toxics11100837

>  <Target Organism>
Not applied

$$$$
Compound 654
Actelion Java MolfileCreator 2.0

  0  0  0  0  0  0              0 V3000
M  V30 BEGIN CTAB
M  V30 COUNTS 15 15 0 0 0
M  V30 BEGIN ATOM
M  V30 1 O 0.0 0.0 0.0 0
M  V30 2 C -1.2987 -0.7556 0.0 0
M  V30 3 O -2.5975 -0.0118 0.0 0
M  V30 4 C -1.2987 -2.2551 0.0 0 CFG=1
M  V30 5 C -3.8962 -0.7674 0.0 0
M  V30 6 C -2.5975 -3.0107 0.0 0
M  V30 7 C 0.0 -2.9989 0.0 0
M  V30 8 C -5.195 -0.0236 0.0 0
M  V30 9 N -3.8962 -3.7664 0.0 0
M  V30 10 C 0.0 -4.4984 0.0 0
M  V30 11 C 1.2987 -2.2551 0.0 0
M  V30 12 C -6.4938 -0.7792 0.0 0
M  V30 13 C 1.2987 -5.254 0.0 0
M  V30 14 C 2.5975 -3.0107 0.0 0
M  V30 15 C 2.5975 -4.5102 0.0 0
M  V30 END ATOM
M  V30 BEGIN BOND
M  V30 1 2 1 2
M  V30 2 1 2 3
M  V30 3 1 2 4
M  V30 4 1 3 5
M  V30 5 1 4 6 CFG=3
M  V30 6 1 4 7
M  V30 7 1 5 8
M  V30 8 3 6 9
M  V30 9 1 7 10
M  V30 10 1 7 11
M  V30 11 2 8 12
M  V30 12 1 10 13
M  V30 13 1 11 14
M  V30 14 1 13 15
M  V30 15 1 14 15
M  V30 END BOND
M  V30 BEGIN COLLECTION
M  V30 MDLV30/STERAC1 ATOMS=(1 4)
M  V30 END COLLECTION
M  V30 END CTAB
M  END
>  <Molecule Name>
alpha-Cyclohexyl-alpha-cyano-acetic acid, allyl ester

>  <Activity Label>
0

>  <SMILES>
C=CCOC(C(C1CCCCC1)C#N)=O

>  <Molecular Formula>
C12H17NO2

>  <InChIKey>
FSPHPENENOKGPC-UHFFFAOYSA-N

>  <Repellency>
Inactive

>  <Reference DOI>
10.3390/toxics11100837

>  <Target Organism>
Not applied

$$$$
Compound 655
Actelion Java MolfileCreator 2.0

  0  0  0  0  0  0              0 V3000
M  V30 BEGIN CTAB
M  V30 COUNTS 15 15 0 0 0
M  V30 BEGIN ATOM
M  V30 1 O 0.0 0.0 0.0 0
M  V30 2 C 0.0 -1.4992 0.0 0
M  V30 3 O -1.2985 -2.2548 0.0 0
M  V30 4 C 1.2985 -2.2548 0.0 0
M  V30 5 C -2.5971 -1.511 0.0 0
M  V30 6 C 1.2985 -3.7541 0.0 0
M  V30 7 C 2.5971 -1.511 0.0 0
M  V30 8 C -3.8957 -2.2666 0.0 0
M  V30 9 N 0.0 -4.4978 0.0 0
M  V30 10 C 2.5971 -4.5096 0.0 0
M  V30 11 C 3.8957 -2.2548 0.0 0
M  V30 12 C -5.1943 -1.5229 0.0 0
M  V30 13 C 3.8957 -3.7659 0.0 0
M  V30 14 C -5.1943 -0.0236 0.0 0
M  V30 15 C -6.4929 -2.2784 0.0 0
M  V30 END ATOM
M  V30 BEGIN BOND
M  V30 1 2 1 2
M  V30 2 1 2 3
M  V30 3 1 2 4
M  V30 4 1 3 5
M  V30 5 2 4 6
M  V30 6 1 4 7
M  V30 7 1 5 8
M  V30 8 1 6 9
M  V30 9 1 6 10
M  V30 10 2 7 11
M  V30 11 1 8 12
M  V30 12 2 10 13
M  V30 13 1 12 14
M  V30 14 1 12 15
M  V30 15 1 11 13
M  V30 END BOND
M  V30 END CTAB
M  END
>  <Molecule Name>
Anthranilic acid, iso-amyl ester

>  <Activity Label>
0

>  <SMILES>
CC(C)CCOC(c(cccc1)c1N)=O

>  <Molecular Formula>
C12H17NO2

>  <InChIKey>
YXMRIWCMMGEYBH-UHFFFAOYSA-N

>  <Repellency>
Inactive

>  <Reference DOI>
10.3390/toxics11100837

>  <Target Organism>
Not applied

$$$$
Compound 656
Actelion Java MolfileCreator 2.0

  0  0  0  0  0  0              0 V3000
M  V30 BEGIN CTAB
M  V30 COUNTS 15 15 0 0 0
M  V30 BEGIN ATOM
M  V30 1 O 0.0 0.0 0.0 0
M  V30 2 C -1.2989 0.7439 0.0 0
M  V30 3 O -2.5978 -0.0118 0.0 0
M  V30 4 C -1.2989 2.2436 0.0 0 CFG=1
M  V30 5 C -3.8968 0.7321 0.0 0
M  V30 6 C 0.0 2.9993 0.0 0
M  V30 7 C -2.5978 2.9875 0.0 0
M  V30 8 C -5.1957 -0.0236 0.0 0
M  V30 9 N 1.2989 3.7551 0.0 0
M  V30 10 C -2.5978 4.4872 0.0 0
M  V30 11 C -1.2989 5.2429 0.0 0
M  V30 12 C -3.8968 5.2311 0.0 0
M  V30 13 C -1.2989 6.7426 0.0 0
M  V30 14 C -3.8968 6.7308 0.0 0
M  V30 15 C -2.5978 7.4866 0.0 0
M  V30 END ATOM
M  V30 BEGIN BOND
M  V30 1 2 1 2
M  V30 2 1 2 3
M  V30 3 1 2 4
M  V30 4 1 3 5
M  V30 5 1 4 6 CFG=3
M  V30 6 1 4 7
M  V30 7 1 5 8
M  V30 8 3 6 9
M  V30 9 1 7 10
M  V30 10 2 10 11
M  V30 11 1 10 12
M  V30 12 1 11 13
M  V30 13 2 12 14
M  V30 14 2 13 15
M  V30 15 1 14 15
M  V30 END BOND
M  V30 BEGIN COLLECTION
M  V30 MDLV30/STERAC1 ATOMS=(1 4)
M  V30 END COLLECTION
M  V30 END CTAB
M  END
>  <Molecule Name>
Benzylcyanoacetic acid, ethyl ester

>  <Activity Label>
0

>  <SMILES>
CCOC(C(Cc1ccccc1)C#N)=O

>  <Molecular Formula>
C12H13NO2

>  <InChIKey>
SYKQOFCBFHMCJV-UHFFFAOYSA-N

>  <Repellency>
Inactive

>  <Reference DOI>
10.3390/toxics11100837

>  <Target Organism>
Not applied

$$$$
Compound 657
Actelion Java MolfileCreator 2.0

  0  0  0  0  0  0              0 V3000
M  V30 BEGIN CTAB
M  V30 COUNTS 15 15 0 0 0
M  V30 BEGIN ATOM
M  V30 1 O 0.0 0.0 0.0 0
M  V30 2 C -1.2996 -0.7443 0.0 0
M  V30 3 O -2.5992 0.0 0.0 0
M  V30 4 C -1.2996 -2.2448 0.0 0
M  V30 5 C -3.8988 -0.7443 0.0 0
M  V30 6 C -2.5992 -2.9891 0.0 0
M  V30 7 C 0.0 -3.0009 0.0 0
M  V30 8 C -5.1984 0.0118 0.0 0
M  V30 9 C -3.8988 -2.2448 0.0 0
M  V30 10 N -3.8988 -3.7334 0.0 0
M  V30 11 C 0.0 -4.5014 0.0 0
M  V30 12 C -6.4981 -0.7325 0.0 0
M  V30 13 C -5.1984 -2.9891 0.0 0
M  V30 14 C -6.4981 -2.2329 0.0 0
M  V30 15 C -7.7977 0.0236 0.0 0
M  V30 END ATOM
M  V30 BEGIN BOND
M  V30 1 2 1 2
M  V30 2 1 2 3
M  V30 3 1 2 4
M  V30 4 1 3 5
M  V30 5 1 4 6
M  V30 6 1 4 7
M  V30 7 1 5 8
M  V30 8 1 5 9
M  V30 9 3 6 10
M  V30 10 1 7 11
M  V30 11 1 8 12
M  V30 12 1 9 13
M  V30 13 1 12 14
M  V30 14 1 12 15
M  V30 15 1 13 14
M  V30 END BOND
M  V30 END CTAB
M  END
>  <Molecule Name>
alpha-Cyanobutyric acid, m-methylcyclohexyl ester

>  <Activity Label>
0

>  <SMILES>
CCC(C(OC1CC(C)CCC1)=O)C#N

>  <Molecular Formula>
C12H19NO2

>  <InChIKey>
VNQYIUURJNHPOH-UHFFFAOYSA-N

>  <Repellency>
Inactive

>  <Reference DOI>
10.3390/toxics11100837

>  <Target Organism>
Not applied

$$$$
Compound 658
Actelion Java MolfileCreator 2.0

  0  0  0  0  0  0              0 V3000
M  V30 BEGIN CTAB
M  V30 COUNTS 15 15 0 0 0
M  V30 BEGIN ATOM
M  V30 1 O 0.0 0.0 0.0 0
M  V30 2 C -1.2999 -0.7445 0.0 0
M  V30 3 O -2.5999 0.0 0.0 0
M  V30 4 C -1.2999 -2.2453 0.0 0 CFG=1
M  V30 5 C -3.8998 -0.7445 0.0 0
M  V30 6 C -2.5999 -2.9899 0.0 0
M  V30 7 C 0.0 -3.0017 0.0 0
M  V30 8 C -5.1998 0.0118 0.0 0
M  V30 9 C -3.8998 -2.2453 0.0 0
M  V30 10 N -3.8998 -3.7344 0.0 0
M  V30 11 C 0.0 -4.5026 0.0 0
M  V30 12 C -6.4998 -0.7327 0.0 0
M  V30 13 C -5.1998 -2.9899 0.0 0
M  V30 14 C -6.4998 -2.2335 0.0 0
M  V30 15 C -7.7997 -2.978 0.0 0
M  V30 END ATOM
M  V30 BEGIN BOND
M  V30 1 2 1 2
M  V30 2 1 2 3
M  V30 3 1 2 4
M  V30 4 1 3 5
M  V30 5 1 4 6 CFG=3
M  V30 6 1 4 7
M  V30 7 1 5 8
M  V30 8 1 5 9
M  V30 9 3 6 10
M  V30 10 1 7 11
M  V30 11 1 8 12
M  V30 12 1 9 13
M  V30 13 1 12 14
M  V30 14 1 14 15
M  V30 15 1 13 14
M  V30 END BOND
M  V30 BEGIN COLLECTION
M  V30 MDLV30/STERAC1 ATOMS=(1 4)
M  V30 END COLLECTION
M  V30 END CTAB
M  END
>  <Molecule Name>
alpha-Cyanobutyric acid, p-methylcyclohexyl ester

>  <Activity Label>
0

>  <SMILES>
CCC(C(OC1CCC(C)CC1)=O)C#N

>  <Molecular Formula>
C12H19NO2

>  <InChIKey>
AKSCEMJPKUNSRJ-UHFFFAOYSA-N

>  <Repellency>
Inactive

>  <Reference DOI>
10.3390/toxics11100837

>  <Target Organism>
Not applied

$$$$
Compound 659
Actelion Java MolfileCreator 2.0

  0  0  0  0  0  0              0 V3000
M  V30 BEGIN CTAB
M  V30 COUNTS 15 15 0 0 0
M  V30 BEGIN ATOM
M  V30 1 O 0.0 0.0 0.0 0
M  V30 2 C -1.2998 -0.7444 0.0 0
M  V30 3 O -2.5996 0.0 0.0 0
M  V30 4 C -1.2998 -2.2451 0.0 0
M  V30 5 C -3.8994 -0.7444 0.0 0
M  V30 6 C -2.5996 -2.9895 0.0 0
M  V30 7 C 0.0 -3.0013 0.0 0
M  V30 8 C -5.1992 0.0118 0.0 0
M  V30 9 C -3.8994 -2.2451 0.0 0
M  V30 10 N -3.8994 -3.7339 0.0 0
M  V30 11 C 0.0 -4.502 0.0 0
M  V30 12 C -6.499 -0.7326 0.0 0
M  V30 13 C -5.1992 1.5124 0.0 0
M  V30 14 C -5.1992 -2.9895 0.0 0
M  V30 15 C -6.499 -2.2332 0.0 0
M  V30 END ATOM
M  V30 BEGIN BOND
M  V30 1 2 1 2
M  V30 2 1 2 3
M  V30 3 1 2 4
M  V30 4 1 3 5
M  V30 5 1 4 6
M  V30 6 1 4 7
M  V30 7 1 5 8
M  V30 8 1 5 9
M  V30 9 3 6 10
M  V30 10 1 7 11
M  V30 11 1 8 12
M  V30 12 1 8 13
M  V30 13 1 9 14
M  V30 14 1 12 15
M  V30 15 1 14 15
M  V30 END BOND
M  V30 END CTAB
M  END
>  <Molecule Name>
alpha-Cyanobutyric acid, o-methylcyclohexyl ester

>  <Activity Label>
0

>  <SMILES>
CCC(C(OC1C(C)CCCC1)=O)C#N

>  <Molecular Formula>
C12H19NO2

>  <InChIKey>
XKSHWBIXUYIOGS-UHFFFAOYSA-N

>  <Repellency>
Inactive

>  <Reference DOI>
10.3390/toxics11100837

>  <Target Organism>
Not applied

$$$$
Compound 660
Actelion Java MolfileCreator 2.0

  0  0  0  0  0  0              0 V3000
M  V30 BEGIN CTAB
M  V30 COUNTS 15 15 0 0 0
M  V30 BEGIN ATOM
M  V30 1 O 0.0 0.0 0.0 0
M  V30 2 C -1.3001 0.7446 0.0 0
M  V30 3 O -2.6002 0.0 0.0 0
M  V30 4 C -1.3001 2.2457 0.0 0 CFG=2
M  V30 5 C -3.9004 0.7446 0.0 0
M  V30 6 C -1.3001 3.7467 0.0 0
M  V30 7 C -2.6002 2.9903 0.0 0
M  V30 8 C 0.0 2.9903 0.0 0
M  V30 9 C -5.2005 0.0 0.0 0
M  V30 10 N -1.3001 5.2478 0.0 0
M  V30 11 C -2.6002 4.4914 0.0 0
M  V30 12 C -3.9004 2.2338 0.0 0
M  V30 13 C -3.9004 5.236 0.0 0
M  V30 14 C -5.2005 2.9785 0.0 0
M  V30 15 C -5.2005 4.4795 0.0 0
M  V30 END ATOM
M  V30 BEGIN BOND
M  V30 1 2 1 2
M  V30 2 1 2 3
M  V30 3 1 2 4
M  V30 4 1 3 5
M  V30 5 1 4 6 CFG=1
M  V30 6 1 4 7
M  V30 7 1 4 8
M  V30 8 1 5 9
M  V30 9 3 6 10
M  V30 10 2 7 11
M  V30 11 1 7 12
M  V30 12 1 11 13
M  V30 13 1 12 14
M  V30 14 1 13 15
M  V30 15 1 14 15
M  V30 END BOND
M  V30 BEGIN COLLECTION
M  V30 MDLV30/STERAC1 ATOMS=(1 4)
M  V30 END COLLECTION
M  V30 END CTAB
M  END
>  <Molecule Name>
(1-Cyclohexenyl)-methylcyanoacetic acid, ethyl ester

>  <Activity Label>
0

>  <SMILES>
CCOC(C(C)(C1=CCCCC1)C#N)=O

>  <Molecular Formula>
C12H17NO2

>  <InChIKey>
ZEONYZULERIQDF-UHFFFAOYSA-N

>  <Repellency>
Inactive

>  <Reference DOI>
10.3390/toxics11100837

>  <Target Organism>
Not applied

$$$$
Compound 661
Actelion Java MolfileCreator 2.0

  0  0  0  0  0  0              0 V3000
M  V30 BEGIN CTAB
M  V30 COUNTS 15 15 0 0 0
M  V30 BEGIN ATOM
M  V30 1 O 0.0 0.0 0.0 0
M  V30 2 C 0.0 -1.4996 0.0 0
M  V30 3 O -1.2989 -2.2554 0.0 0
M  V30 4 N 1.2989 -2.2554 0.0 0
M  V30 5 C -2.5978 -1.5114 0.0 0
M  V30 6 C 1.2989 -3.7551 0.0 0
M  V30 7 C 2.5978 -1.5114 0.0 0
M  V30 8 C -3.8968 -2.2672 0.0 0
M  V30 9 C 0.0 -4.499 0.0 0
M  V30 10 C 2.5978 -4.5108 0.0 0
M  V30 11 C -5.1957 -1.5233 0.0 0
M  V30 12 C 0.0 -5.9987 0.0 0
M  V30 13 C 2.5978 -6.0105 0.0 0
M  V30 14 C -6.4947 -2.279 0.0 0
M  V30 15 C 1.2989 -6.7544 0.0 0
M  V30 END ATOM
M  V30 BEGIN BOND
M  V30 1 2 1 2
M  V30 2 1 2 3
M  V30 3 1 2 4
M  V30 4 1 3 5
M  V30 5 1 4 6
M  V30 6 1 4 7
M  V30 7 1 5 8
M  V30 8 2 6 9
M  V30 9 1 6 10
M  V30 10 1 8 11
M  V30 11 1 9 12
M  V30 12 2 10 13
M  V30 13 1 11 14
M  V30 14 2 12 15
M  V30 15 1 13 15
M  V30 END BOND
M  V30 END CTAB
M  END
>  <Molecule Name>
N-Methyl-N-phenylcarbamic acid, butyl ester

>  <Activity Label>
0

>  <SMILES>
CCCCOC(N(C)c1ccccc1)=O

>  <Molecular Formula>
C12H17NO2

>  <InChIKey>
ZZCBCSRPVZSBJB-UHFFFAOYSA-N

>  <Repellency>
Inactive

>  <Reference DOI>
10.3390/toxics11100837

>  <Target Organism>
Not applied

$$$$
Compound 662
Actelion Java MolfileCreator 2.0

  0  0  0  0  0  0              0 V3000
M  V30 BEGIN CTAB
M  V30 COUNTS 15 15 0 0 0
M  V30 BEGIN ATOM
M  V30 1 O 0.0 0.0 0.0 0
M  V30 2 C 0.0 -1.4998 0.0 0
M  V30 3 N 1.2991 -2.2557 0.0 0
M  V30 4 C -1.2991 -2.2557 0.0 0
M  V30 5 C 2.5982 -1.5116 0.0 0
M  V30 6 C 1.2991 -3.7556 0.0 0
M  V30 7 C -2.5982 -1.5116 0.0 0
M  V30 8 C 3.8973 -2.2675 0.0 0
M  V30 9 C 2.5982 -4.4996 0.0 0
M  V30 10 C -3.8973 -2.2675 0.0 0
M  V30 11 O -5.2673 -1.6534 0.0 0
M  V30 12 O -4.0508 -3.7556 0.0 0
M  V30 13 C -2.6336 -3.0824 0.0 0
M  V30 14 C -6.2711 -2.7635 0.0 0
M  V30 15 C -5.5153 -4.0626 0.0 0
M  V30 END ATOM
M  V30 BEGIN BOND
M  V30 1 2 1 2
M  V30 2 1 2 3
M  V30 3 1 2 4
M  V30 4 1 3 5
M  V30 5 1 3 6
M  V30 6 1 4 7
M  V30 7 1 5 8
M  V30 8 1 6 9
M  V30 9 1 7 10
M  V30 10 1 10 11
M  V30 11 1 10 12
M  V30 12 1 10 13
M  V30 13 1 11 14
M  V30 14 1 12 15
M  V30 15 1 14 15
M  V30 END BOND
M  V30 END CTAB
M  END
>  <Molecule Name>
N,N-Diethyl-2-methyl-1,3-dioxolane-2-propionamide

>  <Activity Label>
0

>  <SMILES>
CCN(CC)C(CCC1(C)OCCO1)=O

>  <Molecular Formula>
C11H21NO3

>  <InChIKey>
GKSDURLVKMHRKY-UHFFFAOYSA-N

>  <Repellency>
Inactive

>  <Reference DOI>
10.3390/toxics11100837

>  <Target Organism>
Not applied

$$$$
Compound 663
Actelion Java MolfileCreator 2.0

  0  0  0  0  0  0              0 V3000
M  V30 BEGIN CTAB
M  V30 COUNTS 15 16 0 0 0
M  V30 BEGIN ATOM
M  V30 1 C 0.0 0.0 0.0 0
M  V30 2 C 1.2994 -0.756 0.0 0
M  V30 3 C 0.0 1.5002 0.0 0 CFG=1
M  V30 4 C -1.2994 -0.756 0.0 0
M  V30 5 C -1.2994 2.2444 0.0 0 CFG=1
M  V30 6 C 1.2994 2.2444 0.0 0
M  V30 7 C -2.5988 -0.0118 0.0 0
M  V30 8 C -1.2994 3.7447 0.0 0
M  V30 9 C -2.5988 1.4884 0.0 0 CFG=1
M  V30 10 C 1.2994 3.7447 0.0 0
M  V30 11 C 0.0 4.4889 0.0 0
M  V30 12 C -3.8983 2.2326 0.0 0
M  V30 13 C 0.0 5.9892 0.0 0
M  V30 14 C -3.8983 3.7329 0.0 0
M  V30 15 C -5.1977 1.4766 0.0 0
M  V30 END ATOM
M  V30 BEGIN BOND
M  V30 1 2 1 2
M  V30 2 1 1 3
M  V30 3 1 1 4
M  V30 4 1 3 5
M  V30 5 1 3 6 CFG=1
M  V30 6 1 4 7
M  V30 7 1 5 8 CFG=3
M  V30 8 1 5 9
M  V30 9 1 6 10
M  V30 10 2 8 11
M  V30 11 1 9 12 CFG=1
M  V30 12 1 11 13
M  V30 13 1 12 14
M  V30 14 1 12 15
M  V30 15 1 7 9
M  V30 16 1 10 11
M  V30 END BOND
M  V30 BEGIN COLLECTION
M  V30 MDLV30/STERAC1 ATOMS=(3 3 5 9)
M  V30 END COLLECTION
M  V30 END CTAB
M  END
>  <Molecule Name>
gamma-Cadinene

>  <Activity Label>
0

>  <SMILES>
CC(C)[C@H](CC1)[C@@H]2C=C(C)CC[C@H]2C1=C

>  <Molecular Formula>
C15H24

>  <InChIKey>
WRHGORWNJGOVQY-UHFFFAOYSA-N

>  <Repellency>
Inactive

>  <Reference DOI>
10.3390/toxics11100837

>  <Target Organism>
Not applied

$$$$
Compound 664
Actelion Java MolfileCreator 2.0

  0  0  0  0  0  0              0 V3000
M  V30 BEGIN CTAB
M  V30 COUNTS 15 16 0 0 0
M  V30 BEGIN ATOM
M  V30 1 O 0.0 0.0 0.0 0
M  V30 2 C 0.0 -1.5006 0.0 0
M  V30 3 O -1.2997 -2.245 0.0 0
M  V30 4 C 1.2997 -2.245 0.0 0
M  V30 5 C -2.5995 -1.5006 0.0 0
M  V30 6 C 2.5995 -1.5006 0.0 0
M  V30 7 C -3.8992 -2.245 0.0 0
M  V30 8 C -5.199 -1.4888 0.0 0
M  V30 9 C -3.8992 -3.7456 0.0 0
M  V30 10 C -6.4987 -2.2332 0.0 0
M  V30 11 C -5.199 -4.49 0.0 0
M  V30 12 O -7.9285 -1.7723 0.0 0
M  V30 13 C -6.4987 -3.7338 0.0 0
M  V30 14 C -8.8147 -2.9894 0.0 0
M  V30 15 O -7.9285 -4.1946 0.0 0
M  V30 END ATOM
M  V30 BEGIN BOND
M  V30 1 2 1 2
M  V30 2 1 2 3
M  V30 3 1 2 4
M  V30 4 1 3 5
M  V30 5 1 4 6
M  V30 6 1 5 7
M  V30 7 2 7 8
M  V30 8 1 7 9
M  V30 9 1 8 10
M  V30 10 2 9 11
M  V30 11 1 10 12
M  V30 12 2 10 13
M  V30 13 1 12 14
M  V30 14 1 13 15
M  V30 15 1 11 13
M  V30 16 1 14 15
M  V30 END BOND
M  V30 END CTAB
M  END
>  <Molecule Name>
Propionic acid, piperonyl ester

>  <Activity Label>
0

>  <SMILES>
CCC(OCc(cc1)cc2c1OCO2)=O

>  <Molecular Formula>
C11H12O4

>  <InChIKey>
FVRCUNZJSLRIKU-UHFFFAOYSA-N

>  <Repellency>
Inactive

>  <Reference DOI>
10.3390/toxics11100837

>  <Target Organism>
Not applied

$$$$
Compound 665
Actelion Java MolfileCreator 2.0

  0  0  0  0  0  0              0 V3000
M  V30 BEGIN CTAB
M  V30 COUNTS 15 16 0 0 0
M  V30 BEGIN ATOM
M  V30 1 O 0.0 0.0 0.0 0
M  V30 2 C 0.0 1.5013 0.0 0
M  V30 3 O -1.3003 2.2461 0.0 0
M  V30 4 C 1.3003 2.2461 0.0 0
M  V30 5 C -2.6007 1.5013 0.0 0
M  V30 6 C 2.6007 1.5013 0.0 0
M  V30 7 C 1.3003 3.7475 0.0 0
M  V30 8 C -3.9011 2.2461 0.0 0
M  V30 9 C 3.9011 2.2461 0.0 0
M  V30 10 C 2.6007 4.4922 0.0 0
M  V30 11 C -5.2015 1.5013 0.0 0
M  V30 12 O 5.3316 1.785 0.0 0
M  V30 13 C 3.9011 3.7475 0.0 0
M  V30 14 C 6.2182 3.0027 0.0 0
M  V30 15 O 5.3316 4.2085 0.0 0
M  V30 END ATOM
M  V30 BEGIN BOND
M  V30 1 2 1 2
M  V30 2 1 2 3
M  V30 3 1 2 4
M  V30 4 1 3 5
M  V30 5 2 4 6
M  V30 6 1 4 7
M  V30 7 1 5 8
M  V30 8 1 6 9
M  V30 9 2 7 10
M  V30 10 1 8 11
M  V30 11 1 9 12
M  V30 12 2 9 13
M  V30 13 1 12 14
M  V30 14 1 13 15
M  V30 15 1 10 13
M  V30 16 1 14 15
M  V30 END BOND
M  V30 END CTAB
M  END
>  <Molecule Name>
Piperonylic acid, n-propyl ester

>  <Activity Label>
0

>  <SMILES>
CCCOC(c(cc1)cc2c1OCO2)=O

>  <Molecular Formula>
C11H12O4

>  <InChIKey>
IAWIMUPWIFSBPA-UHFFFAOYSA-N

>  <Repellency>
Inactive

>  <Reference DOI>
10.3390/toxics11100837

>  <Target Organism>
Not applied

$$$$
Compound 666
Actelion Java MolfileCreator 2.0

  0  0  0  0  0  0              0 V3000
M  V30 BEGIN CTAB
M  V30 COUNTS 15 16 0 0 0
M  V30 BEGIN ATOM
M  V30 1 O 0.0 0.0 0.0 0
M  V30 2 C 0.0 1.5004 0.0 0
M  V30 3 O -1.2996 2.2448 0.0 0
M  V30 4 C 1.2996 2.2448 0.0 0
M  V30 5 C -2.5992 1.4886 0.0 0 CFG=1
M  V30 6 C 2.5992 1.5004 0.0 0
M  V30 7 C 1.2996 3.7453 0.0 0
M  V30 8 O -3.9698 2.103 0.0 0
M  V30 9 C -2.7528 0.0 0.0 0
M  V30 10 O 2.5992 0.0 0.0 0
M  V30 11 C 3.8989 2.2566 0.0 0
M  V30 12 C 2.5992 4.5014 0.0 0
M  V30 13 C -4.974 0.9924 0.0 0
M  V30 14 C -4.2179 -0.3071 0.0 0
M  V30 15 C 3.8989 3.7571 0.0 0
M  V30 END ATOM
M  V30 BEGIN BOND
M  V30 1 2 1 2
M  V30 2 1 2 3
M  V30 3 1 2 4
M  V30 4 1 5 3 CFG=3
M  V30 5 2 4 6
M  V30 6 1 4 7
M  V30 7 1 5 8
M  V30 8 1 5 9
M  V30 9 1 6 10
M  V30 10 1 6 11
M  V30 11 2 7 12
M  V30 12 1 8 13
M  V30 13 1 9 14
M  V30 14 2 11 15
M  V30 15 1 12 15
M  V30 16 1 13 14
M  V30 END BOND
M  V30 BEGIN COLLECTION
M  V30 MDLV30/STERAC1 ATOMS=(1 5)
M  V30 END COLLECTION
M  V30 END CTAB
M  END
>  <Molecule Name>
Salicylic acid, tetrahydrofuryl ester

>  <Activity Label>
0

>  <SMILES>
Oc(cccc1)c1C(OC1OCCC1)=O

>  <Molecular Formula>
C11H12O4

>  <InChIKey>
NMAIPCMYKRLQTN-UHFFFAOYSA-N

>  <Repellency>
Inactive

>  <Reference DOI>
10.3390/toxics11100837

>  <Target Organism>
Not applied

$$$$
Compound 667
Actelion Java MolfileCreator 2.0

  0  0  0  0  0  0              0 V3000
M  V30 BEGIN CTAB
M  V30 COUNTS 15 16 0 0 0
M  V30 BEGIN ATOM
M  V30 1 O 0.0 0.0 0.0 0
M  V30 2 C -0.3072 -1.4651 0.0 0
M  V30 3 C -1.6778 -2.0795 0.0 0
M  V30 4 C 0.6971 -2.5758 0.0 0
M  V30 5 C -2.9775 -1.3351 0.0 0
M  V30 6 C -1.5242 -3.5683 0.0 0
M  V30 7 C -0.0472 -3.8755 0.0 0
M  V30 8 O -2.9775 0.1654 0.0 0
M  V30 9 O -4.2772 -2.0913 0.0 0
M  V30 10 C -5.577 -1.3469 0.0 0
M  V30 11 C -6.8767 -2.1031 0.0 0
M  V30 12 O -7.0303 -3.5919 0.0 0
M  V30 13 C -8.2473 -1.4887 0.0 0
M  V30 14 C -8.4954 -3.8991 0.0 0
M  V30 15 C -9.2516 -2.5994 0.0 0
M  V30 END ATOM
M  V30 BEGIN BOND
M  V30 1 2 1 2
M  V30 2 1 2 3
M  V30 3 1 2 4
M  V30 4 1 3 5
M  V30 5 1 3 6
M  V30 6 1 4 7
M  V30 7 2 5 8
M  V30 8 1 5 9
M  V30 9 1 9 10
M  V30 10 1 10 11
M  V30 11 1 11 12
M  V30 12 1 11 13
M  V30 13 1 12 14
M  V30 14 1 13 15
M  V30 15 1 6 7
M  V30 16 1 14 15
M  V30 END BOND
M  V30 END CTAB
M  END
>  <Molecule Name>
2-Oxocyclopentanecarboxylic acid, tetrahydrofurfuryl ester

>  <Activity Label>
0

>  <SMILES>
O=C(C(CCC1)C1=O)OCC1OCCC1

>  <Molecular Formula>
C11H16O4

>  <InChIKey>
PTZYIBPVTMCJDJ-UHFFFAOYSA-N

>  <Repellency>
Inactive

>  <Reference DOI>
10.3390/toxics11100837

>  <Target Organism>
Not applied

$$$$
Compound 668
Actelion Java MolfileCreator 2.0

  0  0  0  0  0  0              0 V3000
M  V30 BEGIN CTAB
M  V30 COUNTS 15 16 0 0 0
M  V30 BEGIN ATOM
M  V30 1 O 0.0 0.0 0.0 0
M  V30 2 C -1.3028 -0.7511 0.0 0
M  V30 3 C 1.3028 -0.7511 0.0 0
M  V30 4 C -1.4553 -2.2417 0.0 0
M  V30 5 C -2.676 -0.1408 0.0 0
M  V30 6 C 2.6056 0.0 0.0 0
M  V30 7 C -2.9225 -2.5586 0.0 0
M  V30 8 C -0.4577 -3.3567 0.0 0
M  V30 9 O -2.9929 1.3262 0.0 0
M  V30 10 C -3.6736 -1.2558 0.0 0
M  V30 11 C 3.9084 -0.7511 0.0 0
M  V30 12 C -3.3802 -3.9788 0.0 0
M  V30 13 C -0.9154 -4.7769 0.0 0
M  V30 14 C 5.2112 0.0 0.0 0
M  V30 15 C -2.3826 -5.0938 0.0 0
M  V30 END ATOM
M  V30 BEGIN BOND
M  V30 1 1 1 2
M  V30 2 1 1 3
M  V30 3 1 2 4
M  V30 4 1 2 5
M  V30 5 1 3 6
M  V30 6 2 4 7
M  V30 7 1 4 8
M  V30 8 1 5 9
M  V30 9 1 5 10
M  V30 10 1 6 11
M  V30 11 1 7 12
M  V30 12 2 8 13
M  V30 13 1 11 14
M  V30 14 2 12 15
M  V30 15 1 7 10
M  V30 16 1 13 15
M  V30 END BOND
M  V30 END CTAB
M  END
>  <Molecule Name>
1-n-Butoxy-2-hydroxyindane

>  <Activity Label>
0

>  <SMILES>
CCCCOC(C(C1)O)c2c1cccc2

>  <Molecular Formula>
C13H18O2

>  <InChIKey>
XYFACHSMKWZCGI-UHFFFAOYSA-N

>  <Repellency>
Inactive

>  <Reference DOI>
10.3390/toxics11100837

>  <Target Organism>
Not applied

$$$$
Compound 669
Actelion Java MolfileCreator 2.0

  0  0  0  0  0  0              0 V3000
M  V30 BEGIN CTAB
M  V30 COUNTS 15 16 0 0 0
M  V30 BEGIN ATOM
M  V30 1 O 0.0 0.0 0.0 0
M  V30 2 C 0.0 -1.4995 0.0 0
M  V30 3 O -1.2987 -2.2551 0.0 0
M  V30 4 C 1.2987 -2.2551 0.0 0
M  V30 5 C -2.5975 -1.5113 0.0 0
M  V30 6 C 2.5975 -1.5113 0.0 0
M  V30 7 C 1.2987 -3.7546 0.0 0
M  V30 8 C -3.8963 -2.2669 0.0 0
M  V30 9 C 3.8963 -2.2669 0.0 0
M  V30 10 C 2.5975 -4.5103 0.0 0
M  V30 11 C 3.8963 -3.7664 0.0 0
M  V30 12 C 5.1951 -1.5231 0.0 0
M  V30 13 C 5.1951 -4.5221 0.0 0
M  V30 14 C 6.4939 -2.2669 0.0 0
M  V30 15 C 6.4939 -3.7664 0.0 0
M  V30 END ATOM
M  V30 BEGIN BOND
M  V30 1 2 1 2
M  V30 2 1 2 3
M  V30 3 1 2 4
M  V30 4 1 3 5
M  V30 5 2 4 6
M  V30 6 1 4 7
M  V30 7 1 5 8
M  V30 8 1 6 9
M  V30 9 2 7 10
M  V30 10 2 9 11
M  V30 11 1 9 12
M  V30 12 1 11 13
M  V30 13 2 12 14
M  V30 14 2 13 15
M  V30 15 1 10 11
M  V30 16 1 14 15
M  V30 END BOND
M  V30 END CTAB
M  END
>  <Molecule Name>
beta-Naphthoic acid, ethyl ester

>  <Activity Label>
0

>  <SMILES>
CCOC(c1cc(cccc2)c2cc1)=O

>  <Molecular Formula>
C13H12O2

>  <InChIKey>
HQKSINSCHCDMLS-UHFFFAOYSA-N

>  <Repellency>
Inactive

>  <Reference DOI>
10.3390/toxics11100837

>  <Target Organism>
Not applied

$$$$
Compound 670
Actelion Java MolfileCreator 2.0

  0  0  0  0  0  0              0 V3000
M  V30 BEGIN CTAB
M  V30 COUNTS 15 16 0 0 0
M  V30 BEGIN ATOM
M  V30 1 O 0.0 0.0 0.0 0
M  V30 2 C 0.0 -1.4997 0.0 0
M  V30 3 O -1.2989 -2.2554 0.0 0
M  V30 4 C 1.2989 -2.2554 0.0 0
M  V30 5 C -2.5979 -1.5115 0.0 0
M  V30 6 C 2.5979 -1.5115 0.0 0
M  V30 7 C 1.2989 -3.7551 0.0 0
M  V30 8 C -3.8968 -2.2672 0.0 0
M  V30 9 C 3.8968 -2.2672 0.0 0
M  V30 10 C 2.5979 -0.0118 0.0 0
M  V30 11 C 2.5979 -4.5109 0.0 0
M  V30 12 C 3.8968 -3.7669 0.0 0
M  V30 13 C 5.1958 -1.5115 0.0 0
M  V30 14 C 3.8968 0.7321 0.0 0
M  V30 15 C 5.1958 -0.0118 0.0 0
M  V30 END ATOM
M  V30 BEGIN BOND
M  V30 1 2 1 2
M  V30 2 1 2 3
M  V30 3 1 2 4
M  V30 4 1 3 5
M  V30 5 1 4 6
M  V30 6 2 4 7
M  V30 7 1 5 8
M  V30 8 2 6 9
M  V30 9 1 6 10
M  V30 10 1 7 11
M  V30 11 1 9 12
M  V30 12 1 9 13
M  V30 13 2 10 14
M  V30 14 2 13 15
M  V30 15 2 11 12
M  V30 16 1 14 15
M  V30 END BOND
M  V30 END CTAB
M  END
>  <Molecule Name>
alpha-Naphthoic acid, ethyl ester

>  <Activity Label>
0

>  <SMILES>
CCOC(c1cccc2c1cccc2)=O

>  <Molecular Formula>
C13H12O2

>  <InChIKey>
XCTLDQQOHIEUCJ-UHFFFAOYSA-N

>  <Repellency>
Inactive

>  <Reference DOI>
10.3390/toxics11100837

>  <Target Organism>
Not applied

$$$$
Compound 671
Actelion Java MolfileCreator 2.0

  0  0  0  0  0  0              0 V3000
M  V30 BEGIN CTAB
M  V30 COUNTS 15 16 0 0 0
M  V30 BEGIN ATOM
M  V30 1 O 0.0 0.0 0.0 0
M  V30 2 C 1.2997 -0.7444 0.0 0
M  V30 3 C -1.2997 -0.7444 0.0 0
M  V30 4 C 1.2997 -2.245 0.0 0
M  V30 5 C 2.5994 0.0 0.0 0
M  V30 6 C -2.5994 0.0 0.0 0
M  V30 7 C 2.5994 -3.0012 0.0 0
M  V30 8 C 3.8992 -0.7562 0.0 0
M  V30 9 C -3.8992 -0.7444 0.0 0
M  V30 10 C 3.8992 -2.2568 0.0 0
M  V30 11 C -5.1989 0.0118 0.0 0
M  V30 12 C -3.8992 -2.245 0.0 0
M  V30 13 C -6.4987 -0.7325 0.0 0
M  V30 14 C -5.1989 -2.9894 0.0 0
M  V30 15 C -6.4987 -2.2332 0.0 0
M  V30 END ATOM
M  V30 BEGIN BOND
M  V30 1 1 1 2
M  V30 2 1 1 3
M  V30 3 2 2 4
M  V30 4 1 2 5
M  V30 5 2 3 6 CFG=2
M  V30 6 1 4 7
M  V30 7 2 5 8
M  V30 8 1 6 9
M  V30 9 2 7 10
M  V30 10 2 9 11
M  V30 11 1 9 12
M  V30 12 1 11 13
M  V30 13 2 12 14
M  V30 14 2 13 15
M  V30 15 1 8 10
M  V30 16 1 14 15
M  V30 END BOND
M  V30 END CTAB
M  END
>  <Molecule Name>
beta-Phenoxystyrene

>  <Activity Label>
0

>  <SMILES>
C(c1ccccc1)=COc1ccccc1

>  <Molecular Formula>
C14H12O

>  <InChIKey>
SAFZQLDSMLNONX-UHFFFAOYSA-N

>  <Repellency>
Inactive

>  <Reference DOI>
10.3390/toxics11100837

>  <Target Organism>
Not applied

$$$$
Compound 672
Actelion Java MolfileCreator 2.0

  0  0  0  0  0  0              0 V3000
M  V30 BEGIN CTAB
M  V30 COUNTS 15 16 0 0 0
M  V30 BEGIN ATOM
M  V30 1 O 0.0 0.0 0.0 0
M  V30 2 C -1.2997 -0.7444 0.0 0
M  V30 3 C 1.2997 -0.7444 0.0 0
M  V30 4 C -2.5994 0.0118 0.0 0
M  V30 5 C -1.2997 -2.245 0.0 0
M  V30 6 C 2.5994 0.0 0.0 0
M  V30 7 C -3.8992 -0.7325 0.0 0
M  V30 8 C -2.5994 -2.9894 0.0 0
M  V30 9 C 3.8992 -0.7444 0.0 0
M  V30 10 C 2.5994 1.5006 0.0 0
M  V30 11 C -3.8992 -2.2332 0.0 0
M  V30 12 C 5.1989 0.0118 0.0 0
M  V30 13 C 3.8992 2.2568 0.0 0
M  V30 14 C -5.1989 -2.9776 0.0 0
M  V30 15 C 5.1989 1.5124 0.0 0
M  V30 END ATOM
M  V30 BEGIN BOND
M  V30 1 1 1 2
M  V30 2 1 1 3
M  V30 3 2 2 4
M  V30 4 1 2 5
M  V30 5 1 3 6
M  V30 6 1 4 7
M  V30 7 2 5 8
M  V30 8 2 6 9
M  V30 9 1 6 10
M  V30 10 2 7 11
M  V30 11 1 9 12
M  V30 12 2 10 13
M  V30 13 1 11 14
M  V30 14 2 12 15
M  V30 15 1 8 11
M  V30 16 1 13 15
M  V30 END BOND
M  V30 END CTAB
M  END
>  <Molecule Name>
p-Tolyl benzyl ether

>  <Activity Label>
0

>  <SMILES>
Cc(cc1)ccc1OCc1ccccc1

>  <Molecular Formula>
C14H14O

>  <InChIKey>
CHBXCQHBCCLICW-UHFFFAOYSA-N

>  <Repellency>
Inactive

>  <Reference DOI>
10.3390/toxics11100837

>  <Target Organism>
Not applied

$$$$
Compound 673
Actelion Java MolfileCreator 2.0

  0  0  0  0  0  0              0 V3000
M  V30 BEGIN CTAB
M  V30 COUNTS 15 16 0 0 0
M  V30 BEGIN ATOM
M  V30 1 O 0.0 0.0 0.0 0
M  V30 2 C -1.3026 -0.751 0.0 0 CFG=2
M  V30 3 C 1.3026 -0.751 0.0 0
M  V30 4 C -1.4552 -2.2415 0.0 0
M  V30 5 C -2.6757 -0.1408 0.0 0
M  V30 6 C 2.6053 0.0 0.0 0
M  V30 7 C -2.9221 -2.5583 0.0 0
M  V30 8 C -0.4576 -3.3563 0.0 0
M  V30 9 C -3.6732 -1.2557 0.0 0
M  V30 10 C 3.9079 -0.751 0.0 0
M  V30 11 C -3.3798 -3.9783 0.0 0
M  V30 12 C -0.9153 -4.7764 0.0 0
M  V30 13 C 5.2106 0.0 0.0 0
M  V30 14 C -2.3823 -5.0932 0.0 0
M  V30 15 C 6.5132 -0.751 0.0 0
M  V30 END ATOM
M  V30 BEGIN BOND
M  V30 1 1 2 1 CFG=3
M  V30 2 1 1 3
M  V30 3 1 2 4
M  V30 4 1 2 5
M  V30 5 1 3 6
M  V30 6 2 4 7
M  V30 7 1 4 8
M  V30 8 1 5 9
M  V30 9 1 6 10
M  V30 10 1 7 11
M  V30 11 2 8 12
M  V30 12 1 10 13
M  V30 13 2 11 14
M  V30 14 1 13 15
M  V30 15 1 7 9
M  V30 16 1 12 14
M  V30 END BOND
M  V30 BEGIN COLLECTION
M  V30 MDLV30/STERAC1 ATOMS=(1 2)
M  V30 END COLLECTION
M  V30 END CTAB
M  END
>  <Molecule Name>
1-n-Amyloxyindane

>  <Activity Label>
0

>  <SMILES>
CCCCCOC(CC1)c2c1cccc2

>  <Molecular Formula>
C14H20O

>  <InChIKey>
RGVJSBWXFYSQMA-UHFFFAOYSA-N

>  <Repellency>
Inactive

>  <Reference DOI>
10.3390/toxics11100837

>  <Target Organism>
Not applied

$$$$
Compound 674
Actelion Java MolfileCreator 2.0

  0  0  0  0  0  0              0 V3000
M  V30 BEGIN CTAB
M  V30 COUNTS 15 16 0 0 0
M  V30 BEGIN ATOM
M  V30 1 O 0.0 0.0 0.0 0
M  V30 2 C 1.2987 -0.7556 0.0 0
M  V30 3 C -1.2987 -0.7556 0.0 0
M  V30 4 C 1.2987 -2.2551 0.0 0
M  V30 5 C 2.5975 -0.0118 0.0 0
M  V30 6 C 2.5975 -3.0108 0.0 0
M  V30 7 C 3.8963 -0.7674 0.0 0
M  V30 8 C 3.8963 -2.2669 0.0 0
M  V30 9 C 5.1951 -3.0226 0.0 0
M  V30 10 C 6.4939 -2.2787 0.0 0
M  V30 11 C 7.7927 -3.0344 0.0 0
M  V30 12 C 6.4939 -0.7792 0.0 0
M  V30 13 C 9.0915 -2.2905 0.0 0
M  V30 14 C 7.7927 -0.0354 0.0 0
M  V30 15 C 9.0915 -0.791 0.0 0
M  V30 END ATOM
M  V30 BEGIN BOND
M  V30 1 1 1 2
M  V30 2 1 1 3
M  V30 3 2 2 4
M  V30 4 1 2 5
M  V30 5 1 4 6
M  V30 6 2 5 7
M  V30 7 2 6 8
M  V30 8 1 8 9
M  V30 9 1 9 10
M  V30 10 2 10 11
M  V30 11 1 10 12
M  V30 12 1 11 13
M  V30 13 2 12 14
M  V30 14 2 13 15
M  V30 15 1 7 8
M  V30 16 1 14 15
M  V30 END BOND
M  V30 END CTAB
M  END
>  <Molecule Name>
4-Methoxydiphenylmethane

>  <Activity Label>
0

>  <SMILES>
COc1ccc(Cc2ccccc2)cc1

>  <Molecular Formula>
C14H14O

>  <InChIKey>
GQLYCRTUQGSDSM-UHFFFAOYSA-N

>  <Repellency>
Inactive

>  <Reference DOI>
10.3390/toxics11100837

>  <Target Organism>
Not applied

$$$$
Compound 675
Actelion Java MolfileCreator 2.0

  0  0  0  0  0  0              0 V3000
M  V30 BEGIN CTAB
M  V30 COUNTS 15 16 0 0 0
M  V30 BEGIN ATOM
M  V30 1 O 0.0 0.0 0.0 0
M  V30 2 C -1.3002 0.7446 0.0 0
M  V30 3 C 1.3002 0.7446 0.0 0
M  V30 4 C -1.3002 2.2458 0.0 0
M  V30 5 C -2.6004 0.0 0.0 0
M  V30 6 C 0.0 2.9905 0.0 0
M  V30 7 C -2.6004 2.9905 0.0 0
M  V30 8 C -3.9007 0.7565 0.0 0
M  V30 9 C -2.6004 -1.5011 0.0 0
M  V30 10 C 0.0 4.4917 0.0 0
M  V30 11 C -2.6004 4.4917 0.0 0
M  V30 12 C -5.2009 0.0118 0.0 0
M  V30 13 C -3.9007 -2.2458 0.0 0
M  V30 14 C -1.3002 5.2364 0.0 0
M  V30 15 C -5.2009 -1.4893 0.0 0
M  V30 END ATOM
M  V30 BEGIN BOND
M  V30 1 1 1 2
M  V30 2 1 1 3
M  V30 3 1 2 4
M  V30 4 1 2 5
M  V30 5 2 4 6
M  V30 6 1 4 7
M  V30 7 2 5 8
M  V30 8 1 5 9
M  V30 9 1 6 10
M  V30 10 2 7 11
M  V30 11 1 8 12
M  V30 12 2 9 13
M  V30 13 2 10 14
M  V30 14 2 12 15
M  V30 15 1 11 14
M  V30 16 1 13 15
M  V30 END BOND
M  V30 END CTAB
M  END
>  <Molecule Name>
Benzhydryl methyl ether

>  <Activity Label>
0

>  <SMILES>
COC(c1ccccc1)c1ccccc1

>  <Molecular Formula>
C14H14O

>  <InChIKey>
IBNWKIKUJJNBKG-UHFFFAOYSA-N

>  <Repellency>
Inactive

>  <Reference DOI>
10.3390/toxics11100837

>  <Target Organism>
Not applied

$$$$
Compound 676
Actelion Java MolfileCreator 2.0

  0  0  0  0  0  0              0 V3000
M  V30 BEGIN CTAB
M  V30 COUNTS 15 16 0 0 0
M  V30 BEGIN ATOM
M  V30 1 O 0.0 0.0 0.0 0
M  V30 2 C 0.0 -1.5002 0.0 0
M  V30 3 C 1.2994 -2.2444 0.0 0
M  V30 4 C -1.2994 -2.2444 0.0 0
M  V30 5 C 2.5988 -1.4884 0.0 0
M  V30 6 C 1.2994 -3.7447 0.0 0
M  V30 7 C -2.5988 -1.4884 0.0 0
M  V30 8 C -1.2994 -3.7447 0.0 0
M  V30 9 C 3.8983 -2.2326 0.0 0
M  V30 10 C 2.5988 0.0118 0.0 0
M  V30 11 C 2.5988 -4.4889 0.0 0
M  V30 12 C -3.8983 -2.2326 0.0 0
M  V30 13 C -2.5988 -4.4889 0.0 0
M  V30 14 C 3.8983 -3.7329 0.0 0
M  V30 15 C -3.8983 -3.7329 0.0 0
M  V30 END ATOM
M  V30 BEGIN BOND
M  V30 1 2 1 2
M  V30 2 1 2 3
M  V30 3 1 2 4
M  V30 4 2 3 5
M  V30 5 1 3 6
M  V30 6 2 4 7
M  V30 7 1 4 8
M  V30 8 1 5 9
M  V30 9 1 5 10
M  V30 10 2 6 11
M  V30 11 1 7 12
M  V30 12 2 8 13
M  V30 13 2 9 14
M  V30 14 2 12 15
M  V30 15 1 11 14
M  V30 16 1 13 15
M  V30 END BOND
M  V30 END CTAB
M  END
>  <Molecule Name>
Phenyl o-tolyl ketone

>  <Activity Label>
0

>  <SMILES>
Cc(cccc1)c1C(c1ccccc1)=O

>  <Molecular Formula>
C14H12O

>  <InChIKey>
CKGKXGQVRVAKEA-UHFFFAOYSA-N

>  <Repellency>
Inactive

>  <Reference DOI>
10.3390/toxics11100837

>  <Target Organism>
Not applied

$$$$
Compound 677
Actelion Java MolfileCreator 2.0

  0  0  0  0  0  0              0 V3000
M  V30 BEGIN CTAB
M  V30 COUNTS 15 16 0 0 0
M  V30 BEGIN ATOM
M  V30 1 Cl 0.0 0.0 0.0 0
M  V30 2 C -1.2989 0.7557 0.0 0
M  V30 3 C -1.2989 2.2554 0.0 0
M  V30 4 C -2.5979 0.0118 0.0 0
M  V30 5 O 0.0 2.9994 0.0 0
M  V30 6 C -2.5979 3.0112 0.0 0
M  V30 7 C -3.8968 0.7557 0.0 0
M  V30 8 C 1.2989 2.2554 0.0 0
M  V30 9 C -2.5979 4.5109 0.0 0
M  V30 10 C -3.8968 2.2672 0.0 0
M  V30 11 C -1.2989 5.2548 0.0 0
M  V30 12 C -3.8968 5.2666 0.0 0
M  V30 13 C -1.2989 6.7545 0.0 0
M  V30 14 C -3.8968 6.7663 0.0 0
M  V30 15 C -2.5979 7.5103 0.0 0
M  V30 END ATOM
M  V30 BEGIN BOND
M  V30 1 1 1 2
M  V30 2 2 2 3
M  V30 3 1 2 4
M  V30 4 1 3 5
M  V30 5 1 3 6
M  V30 6 2 4 7
M  V30 7 1 5 8
M  V30 8 1 6 9
M  V30 9 2 6 10
M  V30 10 2 9 11
M  V30 11 1 9 12
M  V30 12 1 11 13
M  V30 13 2 12 14
M  V30 14 2 13 15
M  V30 15 1 7 10
M  V30 16 1 14 15
M  V30 END BOND
M  V30 END CTAB
M  END
>  <Molecule Name>
2-Methoxy-3-chlorobiphenyl

>  <Activity Label>
0

>  <SMILES>
COc(c(-c1ccccc1)ccc1)c1Cl

>  <Molecular Formula>
C13H11OCl

>  <InChIKey>
MYIDUBKPZXSPCS-UHFFFAOYSA-N

>  <Repellency>
Inactive

>  <Reference DOI>
10.3390/toxics11100837

>  <Target Organism>
Not applied

$$$$
Compound 678
Actelion Java MolfileCreator 2.0

  0  0  0  0  0  0              0 V3000
M  V30 BEGIN CTAB
M  V30 COUNTS 15 16 0 0 0
M  V30 BEGIN ATOM
M  V30 1 O 0.0 0.0 0.0 0
M  V30 2 C 1.111 -1.0046 0.0 0
M  V30 3 C 0.9573 -2.4938 0.0 0 CFG=2
M  V30 4 C 2.5766 -0.6973 0.0 0
M  V30 5 C -0.3427 -3.2385 0.0 0
M  V30 6 C 2.3284 -3.1085 0.0 0
M  V30 7 C 3.333 -1.9974 0.0 0
M  V30 8 O -0.3427 -4.7395 0.0 0
M  V30 9 O -1.6428 -2.4938 0.0 0
M  V30 10 C -2.943 -3.2385 0.0 0
M  V30 11 C -4.2431 -2.482 0.0 0
M  V30 12 C -2.943 -4.7395 0.0 0
M  V30 13 C -5.5432 -3.2266 0.0 0
M  V30 14 C -4.2431 -5.4842 0.0 0
M  V30 15 C -5.5432 -4.7277 0.0 0
M  V30 END ATOM
M  V30 BEGIN BOND
M  V30 1 2 1 2
M  V30 2 1 2 3
M  V30 3 1 2 4
M  V30 4 1 3 5 CFG=1
M  V30 5 1 3 6
M  V30 6 1 4 7
M  V30 7 2 5 8
M  V30 8 1 5 9
M  V30 9 1 9 10
M  V30 10 1 10 11
M  V30 11 1 10 12
M  V30 12 1 11 13
M  V30 13 1 12 14
M  V30 14 1 13 15
M  V30 15 1 6 7
M  V30 16 1 14 15
M  V30 END BOND
M  V30 BEGIN COLLECTION
M  V30 MDLV30/STERAC1 ATOMS=(1 3)
M  V30 END COLLECTION
M  V30 END CTAB
M  END
>  <Molecule Name>
2-Oxocyclopentanecarboxylic acid, cyclohexyl ester

>  <Activity Label>
0

>  <SMILES>
O=C(C(CCC1)C1=O)OC1CCCCC1

>  <Molecular Formula>
C12H18O3

>  <InChIKey>
LGEDVUCPMBNQTL-UHFFFAOYSA-N

>  <Repellency>
Inactive

>  <Reference DOI>
10.3390/toxics11100837

>  <Target Organism>
Not applied

$$$$
Compound 679
Actelion Java MolfileCreator 2.0

  0  0  0  0  0  0              0 V3000
M  V30 BEGIN CTAB
M  V30 COUNTS 15 16 0 0 0
M  V30 BEGIN ATOM
M  V30 1 N 0.0 0.0 0.0 0
M  V30 2 C -1.2991 -0.744 0.0 0 CFG=2
M  V30 3 C 1.2991 -0.744 0.0 0
M  V30 4 N -2.5982 -1.4998 0.0 0
M  V30 5 C 1.2991 -2.2439 0.0 0
M  V30 6 C 2.5982 0.0 0.0 0
M  V30 7 C -3.8973 -0.744 0.0 0
M  V30 8 C 2.5982 -2.9997 0.0 0
M  V30 9 C 3.8973 -0.744 0.0 0
M  V30 10 C -3.8973 0.7558 0.0 0
M  V30 11 C -5.1964 -1.488 0.0 0
M  V30 12 C 3.8973 -2.2439 0.0 0
M  V30 13 C -5.1964 1.5116 0.0 0
M  V30 14 C -6.4955 -0.7322 0.0 0
M  V30 15 C -6.4955 0.7676 0.0 0
M  V30 END ATOM
M  V30 BEGIN BOND
M  V30 1 2 1 2
M  V30 2 1 1 3 CFG=1
M  V30 3 2 2 4
M  V30 4 1 3 5
M  V30 5 1 3 6
M  V30 6 1 4 7
M  V30 7 1 5 8
M  V30 8 1 6 9
M  V30 9 1 7 10
M  V30 10 1 7 11
M  V30 11 1 8 12
M  V30 12 1 10 13
M  V30 13 1 11 14
M  V30 14 1 13 15
M  V30 15 1 9 12
M  V30 16 1 14 15
M  V30 END BOND
M  V30 BEGIN COLLECTION
M  V30 MDLV30/STERAC1 ATOMS=(1 2)
M  V30 END COLLECTION
M  V30 END CTAB
M  END
>  <Molecule Name>
Dicyclohexyl carbodiimide

>  <Activity Label>
0

>  <SMILES>
C(CC1)CCC1N=C=NC1CCCCC1

>  <Molecular Formula>
C13H22N2

>  <InChIKey>
QOSSAOTZNIDXMA-UHFFFAOYSA-N

>  <Repellency>
Inactive

>  <Reference DOI>
10.3390/toxics11100837

>  <Target Organism>
Not applied

$$$$
Compound 680
Actelion Java MolfileCreator 2.0

  0  0  0  0  0  0              0 V3000
M  V30 BEGIN CTAB
M  V30 COUNTS 15 16 0 0 0
M  V30 BEGIN ATOM
M  V30 1 N 0.0 0.0 0.0 0
M  V30 2 C 1.2989 -0.7557 0.0 0
M  V30 3 C 2.5979 -1.5115 0.0 0
M  V30 4 C 2.5979 -3.0112 0.0 0
M  V30 5 C 3.8968 -0.7675 0.0 0
M  V30 6 C 1.2989 -3.7551 0.0 0
M  V30 7 C 3.8968 -3.7669 0.0 0
M  V30 8 C 5.1958 -1.5233 0.0 0
M  V30 9 C 3.8968 0.7321 0.0 0
M  V30 10 C 1.2989 -5.2548 0.0 0
M  V30 11 C 3.8968 -5.2666 0.0 0
M  V30 12 C 6.4947 -0.7793 0.0 0
M  V30 13 C 5.1958 1.476 0.0 0
M  V30 14 C 2.5979 -6.0106 0.0 0
M  V30 15 C 6.4947 0.7203 0.0 0
M  V30 END ATOM
M  V30 BEGIN BOND
M  V30 1 3 1 2
M  V30 2 1 2 3
M  V30 3 1 3 4
M  V30 4 2 3 5
M  V30 5 2 4 6
M  V30 6 1 4 7
M  V30 7 1 5 8
M  V30 8 1 5 9
M  V30 9 1 6 10
M  V30 10 2 7 11
M  V30 11 1 8 12
M  V30 12 1 9 13
M  V30 13 2 10 14
M  V30 14 1 12 15
M  V30 15 1 11 14
M  V30 16 1 13 15
M  V30 END BOND
M  V30 END CTAB
M  END
>  <Molecule Name>
Cyclohexylidenephenyl acetonitrile

>  <Activity Label>
0

>  <SMILES>
N#CC(c1ccccc1)=C1CCCCC1

>  <Molecular Formula>
C14H15N

>  <InChIKey>
ZHOOOLQOWQVYOE-UHFFFAOYSA-N

>  <Repellency>
Inactive

>  <Reference DOI>
10.3390/toxics11100837

>  <Target Organism>
Not applied

$$$$
Compound 681
Actelion Java MolfileCreator 2.0

  0  0  0  0  0  0              0 V3000
M  V30 BEGIN CTAB
M  V30 COUNTS 15 17 0 0 0
M  V30 BEGIN ATOM
M  V30 1 O 0.0 0.0 0.0 0
M  V30 2 C 0.885 -1.2154 0.0 0
M  V30 3 C -1.4278 -0.4602 0.0 0
M  V30 4 C 0.0 -2.4309 0.0 0
M  V30 5 C 2.3719 -1.3688 0.0 0
M  V30 6 C -1.4278 -1.9588 0.0 0
M  V30 7 C -2.0414 0.9086 0.0 0
M  V30 8 C -2.9147 -0.3068 0.0 0
M  V30 9 C 0.6136 -3.7997 0.0 0
M  V30 10 C 2.9855 -2.7377 0.0 0
M  V30 11 C 2.1004 -3.9531 0.0 0
M  V30 12 C -0.2714 -5.0152 0.0 0
M  V30 13 C 2.7141 -5.322 0.0 0
M  V30 14 C 0.3422 -6.384 0.0 0
M  V30 15 C 1.829 -6.5374 0.0 0
M  V30 END ATOM
M  V30 BEGIN BOND
M  V30 1 1 1 2
M  V30 2 1 1 3
M  V30 3 2 2 4
M  V30 4 1 2 5
M  V30 5 1 3 6
M  V30 6 1 3 7
M  V30 7 1 3 8
M  V30 8 1 4 9
M  V30 9 2 5 10
M  V30 10 2 9 11
M  V30 11 1 9 12
M  V30 12 1 11 13
M  V30 13 2 12 14
M  V30 14 2 13 15
M  V30 15 1 4 6
M  V30 16 1 10 11
M  V30 17 1 14 15
M  V30 END BOND
M  V30 END CTAB
M  END
>  <Molecule Name>
1,2-Dihydro-2,2-dimethylnaphtho(2,1-b)furan

>  <Activity Label>
0

>  <SMILES>
CC(C)(C1)Oc2c1c(cccc1)c1cc2

>  <Molecular Formula>
C14H14O

>  <InChIKey>
OZQXYQYUDZMKAY-UHFFFAOYSA-N

>  <Repellency>
Inactive

>  <Reference DOI>
10.3390/toxics11100837

>  <Target Organism>
Not applied

$$$$
Compound 682
Actelion Java MolfileCreator 2.0

  0  0  0  0  0  0              0 V3000
M  V30 BEGIN CTAB
M  V30 COUNTS 16 16 0 0 0
M  V30 BEGIN ATOM
M  V30 1 C 0.0 0.0 0.0 0
M  V30 2 C 1.2999 0.7444 0.0 0
M  V30 3 C 0.0 -1.5008 0.0 0
M  V30 4 C -1.2999 0.7563 0.0 0
M  V30 5 C 2.5998 -0.0118 0.0 0
M  V30 6 C 1.2999 2.2453 0.0 0
M  V30 7 C 1.2999 -2.2453 0.0 0
M  V30 8 C -1.2999 -2.2453 0.0 0
M  V30 9 C -2.5998 0.0118 0.0 0
M  V30 10 C 2.5998 -1.5126 0.0 0
M  V30 11 C 3.8997 0.7326 0.0 0
M  V30 12 C 0.0 3.0016 0.0 0
M  V30 13 C 1.2999 -3.7461 0.0 0
M  V30 14 C -1.2999 -3.7461 0.0 0
M  V30 15 C 5.1996 -0.0118 0.0 0
M  V30 16 C 2.5998 -4.5024 0.0 0
M  V30 END ATOM
M  V30 BEGIN BOND
M  V30 1 2 1 2
M  V30 2 1 1 3
M  V30 3 1 1 4
M  V30 4 1 2 5
M  V30 5 1 2 6
M  V30 6 2 3 7
M  V30 7 1 3 8
M  V30 8 1 4 9
M  V30 9 2 5 10
M  V30 10 1 5 11
M  V30 11 1 6 12
M  V30 12 1 7 13
M  V30 13 1 8 14
M  V30 14 1 11 15
M  V30 15 1 13 16
M  V30 16 1 7 10
M  V30 END BOND
M  V30 END CTAB
M  END
>  <Molecule Name>
Pentaethylbenzene

>  <Activity Label>
0

>  <SMILES>
CCc1c(CC)c(CC)c(CC)c(CC)c1

>  <Molecular Formula>
C16H26

>  <InChIKey>
JREJWHNDQOGSQT-UHFFFAOYSA-N

>  <Repellency>
Inactive

>  <Reference DOI>
10.3390/toxics11100837

>  <Target Organism>
Not applied

$$$$
Compound 683
Actelion Java MolfileCreator 2.0

  0  0  0  0  0  0              0 V3000
M  V30 BEGIN CTAB
M  V30 COUNTS 16 16 0 0 0
M  V30 BEGIN ATOM
M  V30 1 O 0.0 0.0 0.0 0
M  V30 2 C 0.0 -1.498 0.0 0
M  V30 3 O 1.2974 -2.2529 0.0 0
M  V30 4 C -1.2974 -2.2529 0.0 0
M  V30 5 C 2.5949 -1.5098 0.0 0
M  V30 6 C -2.5949 -1.5098 0.0 0
M  V30 7 C -1.2974 -3.7509 0.0 0
M  V30 8 C 3.8924 -2.2647 0.0 0
M  V30 9 O -2.5949 -0.0117 0.0 0
M  V30 10 O -3.8924 -2.2647 0.0 0
M  V30 11 C -2.5124 -4.6355 0.0 0
M  V30 12 C -0.0825 -4.6355 0.0 0
M  V30 13 C -5.1899 -1.5216 0.0 0
M  V30 14 C -2.0523 -6.0628 0.0 0
M  V30 15 C -0.5425 -6.0628 0.0 0
M  V30 16 C -6.4874 -2.2765 0.0 0
M  V30 END ATOM
M  V30 BEGIN BOND
M  V30 1 2 1 2
M  V30 2 1 2 3
M  V30 3 1 2 4
M  V30 4 1 3 5
M  V30 5 1 4 6
M  V30 6 1 4 7
M  V30 7 1 5 8
M  V30 8 2 6 9
M  V30 9 1 6 10
M  V30 10 1 7 11
M  V30 11 1 7 12
M  V30 12 1 10 13
M  V30 13 1 11 14
M  V30 14 1 12 15
M  V30 15 1 13 16
M  V30 16 1 14 15
M  V30 END BOND
M  V30 END CTAB
M  END
>  <Molecule Name>
Cyclopentylmalonic acid, diethyl ester

>  <Activity Label>
0

>  <SMILES>
CCOC(C(C1CCCC1)C(OCC)=O)=O

>  <Molecular Formula>
C12H20O4

>  <InChIKey>
WXPOKLNJWFXXQO-UHFFFAOYSA-N

>  <Repellency>
Inactive

>  <Reference DOI>
10.3390/toxics11100837

>  <Target Organism>
Not applied

$$$$
Compound 684
Actelion Java MolfileCreator 2.0

  0  0  0  0  0  0              0 V3000
M  V30 BEGIN CTAB
M  V30 COUNTS 16 16 0 0 0
M  V30 BEGIN ATOM
M  V30 1 S 0.0 0.0 0.0 0
M  V30 2 O 0.7555 1.2986 0.0 0
M  V30 3 O -0.7437 1.2986 0.0 0
M  V30 4 C 1.2986 -0.7555 0.0 0
M  V30 5 C -1.2986 -0.7555 0.0 0
M  V30 6 C 2.5972 -0.0118 0.0 0
M  V30 7 C 1.2986 -2.2548 0.0 0
M  V30 8 C -2.5972 -0.0118 0.0 0
M  V30 9 C 3.8958 -0.7673 0.0 0
M  V30 10 C 2.5972 -3.0104 0.0 0
M  V30 11 O -2.5972 1.4875 0.0 0
M  V30 12 O -3.8958 -0.7673 0.0 0
M  V30 13 C 3.8958 -2.2666 0.0 0
M  V30 14 C -5.1944 -0.0236 0.0 0
M  V30 15 C 5.1944 -3.0222 0.0 0
M  V30 16 C -6.4931 -0.7791 0.0 0
M  V30 END ATOM
M  V30 BEGIN BOND
M  V30 1 2 1 2
M  V30 2 2 1 3
M  V30 3 1 1 4
M  V30 4 1 1 5
M  V30 5 2 4 6
M  V30 6 1 4 7
M  V30 7 1 5 8
M  V30 8 1 6 9
M  V30 9 2 7 10
M  V30 10 2 8 11
M  V30 11 1 8 12
M  V30 12 2 9 13
M  V30 13 1 12 14
M  V30 14 1 13 15
M  V30 15 1 14 16
M  V30 16 1 10 13
M  V30 END BOND
M  V30 END CTAB
M  END
>  <Molecule Name>
p-Toluenesulfonylacetic acid, ethyl ester

>  <Activity Label>
0

>  <SMILES>
CCOC(CS(c1ccc(C)cc1)(=O)=O)=O

>  <Molecular Formula>
C11H14O4S

>  <InChIKey>
VDXYJUBMHZEPOQ-UHFFFAOYSA-N

>  <Repellency>
Inactive

>  <Reference DOI>
10.3390/toxics11100837

>  <Target Organism>
Not applied

$$$$
Compound 685
Actelion Java MolfileCreator 2.0

  0  0  0  0  0  0              0 V3000
M  V30 BEGIN CTAB
M  V30 COUNTS 16 16 0 0 0
M  V30 BEGIN ATOM
M  V30 1 O 0.0 0.0 0.0 0
M  V30 2 C 0.0 -1.4989 0.0 0
M  V30 3 O -1.2983 -2.2543 0.0 0
M  V30 4 C 1.2983 -2.2543 0.0 0
M  V30 5 C -2.5966 -1.5107 0.0 0
M  V30 6 C 2.5966 -1.5107 0.0 0
M  V30 7 C -3.8949 -2.2661 0.0 0
M  V30 8 C 3.8949 -2.2661 0.0 0
M  V30 9 C 5.1932 -1.5225 0.0 0
M  V30 10 C 6.4915 -2.2779 0.0 0
M  V30 11 C 7.7898 -1.5343 0.0 0
M  V30 12 C 9.0881 -2.2897 0.0 0
M  V30 13 C 7.7898 -0.0354 0.0 0
M  V30 14 C 10.3864 -1.5343 0.0 0
M  V30 15 C 9.0881 0.7199 0.0 0
M  V30 16 C 10.3864 -0.0354 0.0 0
M  V30 END ATOM
M  V30 BEGIN BOND
M  V30 1 2 1 2
M  V30 2 1 2 3
M  V30 3 1 2 4
M  V30 4 1 3 5
M  V30 5 2 4 6 CFG=2
M  V30 6 1 5 7
M  V30 7 1 6 8
M  V30 8 1 8 9
M  V30 9 1 9 10
M  V30 10 1 10 11
M  V30 11 1 11 12
M  V30 12 1 11 13
M  V30 13 1 12 14
M  V30 14 1 13 15
M  V30 15 1 14 16
M  V30 16 1 15 16
M  V30 END BOND
M  V30 END CTAB
M  END
>  <Molecule Name>
6-Cyclohexyl-2-hexenoic acid, ethyl ester

>  <Activity Label>
0

>  <SMILES>
CCOC(C=CCCCC1CCCCC1)=O

>  <Molecular Formula>
C14H24O2

>  <InChIKey>
DIIROVHDTQSVDN-UHFFFAOYSA-N

>  <Repellency>
Inactive

>  <Reference DOI>
10.3390/toxics11100837

>  <Target Organism>
Not applied

$$$$
Compound 686
Actelion Java MolfileCreator 2.0

  0  0  0  0  0  0              0 V3000
M  V30 BEGIN CTAB
M  V30 COUNTS 16 16 0 0 0
M  V30 BEGIN ATOM
M  V30 1 O 0.0 0.0 0.0 0
M  V30 2 C 0.0 -1.4989 0.0 0
M  V30 3 O -1.2983 -2.2543 0.0 0
M  V30 4 C 1.2983 -2.2543 0.0 0
M  V30 5 C -2.5966 -1.5107 0.0 0
M  V30 6 C 2.5966 -1.5107 0.0 0
M  V30 7 C -3.8949 -2.2661 0.0 0
M  V30 8 C 3.8949 -2.2661 0.0 0
M  V30 9 C 5.1932 -1.5225 0.0 0
M  V30 10 C 6.4915 -2.2779 0.0 0
M  V30 11 C 7.7898 -1.5343 0.0 0
M  V30 12 C 9.0881 -2.2897 0.0 0
M  V30 13 C 7.7898 -0.0354 0.0 0
M  V30 14 C 10.3864 -1.5343 0.0 0
M  V30 15 C 9.0881 0.7199 0.0 0
M  V30 16 C 10.3864 -0.0354 0.0 0
M  V30 END ATOM
M  V30 BEGIN BOND
M  V30 1 2 1 2
M  V30 2 1 2 3
M  V30 3 1 2 4
M  V30 4 1 3 5
M  V30 5 1 4 6
M  V30 6 1 5 7
M  V30 7 1 6 8
M  V30 8 1 8 9
M  V30 9 1 9 10
M  V30 10 1 10 11
M  V30 11 1 11 12
M  V30 12 1 11 13
M  V30 13 1 12 14
M  V30 14 1 13 15
M  V30 15 1 14 16
M  V30 16 1 15 16
M  V30 END BOND
M  V30 END CTAB
M  END
>  <Molecule Name>
epsilon-Cyclohexylcaproic acid, ethyl ester

>  <Activity Label>
0

>  <SMILES>
CCOC(CCCCCC1CCCCC1)=O

>  <Molecular Formula>
C14H26O2

>  <InChIKey>
DILSTQZMDHFZQK-UHFFFAOYSA-N

>  <Repellency>
Inactive

>  <Reference DOI>
10.3390/toxics11100837

>  <Target Organism>
Not applied

$$$$
Compound 687
Actelion Java MolfileCreator 2.0

  0  0  0  0  0  0              0 V3000
M  V30 BEGIN CTAB
M  V30 COUNTS 16 16 0 0 0
M  V30 BEGIN ATOM
M  V30 1 O 0.0 0.0 0.0 0
M  V30 2 C 0.0 1.4974 0.0 0
M  V30 3 O -1.297 2.2521 0.0 0
M  V30 4 C 1.297 2.2521 0.0 0
M  V30 5 C -2.594 1.4974 0.0 0
M  V30 6 C 2.594 1.4974 0.0 0
M  V30 7 C 1.297 3.7495 0.0 0
M  V30 8 C -3.891 2.2521 0.0 0
M  V30 9 C 3.891 2.2521 0.0 0
M  V30 10 C 2.594 4.5042 0.0 0
M  V30 11 C -5.1881 1.4974 0.0 0
M  V30 12 C 3.891 3.7495 0.0 0
M  V30 13 C -6.4851 2.2521 0.0 0
M  V30 14 C -7.7821 1.4974 0.0 0
M  V30 15 C -9.0791 2.2521 0.0 0
M  V30 16 C -10.3762 1.4974 0.0 0
M  V30 END ATOM
M  V30 BEGIN BOND
M  V30 1 2 1 2
M  V30 2 1 2 3
M  V30 3 1 2 4
M  V30 4 1 3 5
M  V30 5 2 4 6
M  V30 6 1 4 7
M  V30 7 1 5 8
M  V30 8 1 6 9
M  V30 9 2 7 10
M  V30 10 1 8 11
M  V30 11 2 9 12
M  V30 12 1 11 13
M  V30 13 1 13 14
M  V30 14 1 14 15
M  V30 15 1 15 16
M  V30 16 1 10 12
M  V30 END BOND
M  V30 END CTAB
M  END
>  <Molecule Name>
Benzoic acid, n-heptyl ester

>  <Activity Label>
0

>  <SMILES>
CCCCCCCOC(c1ccccc1)=O

>  <Molecular Formula>
C14H20O2

>  <InChIKey>
UMFTYCUYCNMERS-UHFFFAOYSA-N

>  <Repellency>
Inactive

>  <Reference DOI>
10.3390/toxics11100837

>  <Target Organism>
Not applied

$$$$
Compound 688
Actelion Java MolfileCreator 2.0

  0  0  0  0  0  0              0 V3000
M  V30 BEGIN CTAB
M  V30 COUNTS 16 16 0 0 0
M  V30 BEGIN ATOM
M  V30 1 O 0.0 0.0 0.0 0
M  V30 2 C 0.0 -1.5013 0.0 0
M  V30 3 O 1.3003 -2.2461 0.0 0
M  V30 4 C -1.3003 -2.2461 0.0 0
M  V30 5 C 2.6007 -1.5013 0.0 0
M  V30 6 C -2.6007 -1.5013 0.0 0
M  V30 7 C -1.3003 -3.7474 0.0 0
M  V30 8 C 3.9011 -2.2461 0.0 0
M  V30 9 C -3.9011 -2.2461 0.0 0
M  V30 10 C 5.2015 -1.5013 0.0 0
M  V30 11 C -5.2015 -1.4895 0.0 0
M  V30 12 C -3.9011 -3.7474 0.0 0
M  V30 13 C 6.5019 -2.2461 0.0 0
M  V30 14 C -6.5019 -2.2343 0.0 0
M  V30 15 C -5.2015 -4.4922 0.0 0
M  V30 16 C -6.5019 -3.7356 0.0 0
M  V30 END ATOM
M  V30 BEGIN BOND
M  V30 1 2 1 2
M  V30 2 1 2 3
M  V30 3 1 2 4
M  V30 4 1 3 5
M  V30 5 2 4 6 CFG=2
M  V30 6 1 4 7
M  V30 7 1 5 8
M  V30 8 1 6 9
M  V30 9 1 8 10
M  V30 10 2 9 11
M  V30 11 1 9 12
M  V30 12 1 10 13
M  V30 13 1 11 14
M  V30 14 2 12 15
M  V30 15 2 14 16
M  V30 16 1 15 16
M  V30 END BOND
M  V30 END CTAB
M  END
>  <Molecule Name>
alpha-methylcinnamic acid, n-butyl ester

>  <Activity Label>
0

>  <SMILES>
CCCCOC(C(C)=Cc1ccccc1)=O

>  <Molecular Formula>
C14H18O2

>  <InChIKey>
AXVRAMHXZJBLOO-UHFFFAOYSA-N

>  <Repellency>
Inactive

>  <Reference DOI>
10.3390/toxics11100837

>  <Target Organism>
Not applied

$$$$
Compound 689
Actelion Java MolfileCreator 2.0

  0  0  0  0  0  0              0 V3000
M  V30 BEGIN CTAB
M  V30 COUNTS 16 16 0 0 0
M  V30 BEGIN ATOM
M  V30 1 O 0.0 0.0 0.0 0
M  V30 2 C 0.0 -1.4995 0.0 0
M  V30 3 O -1.2987 -2.2551 0.0 0
M  V30 4 C 1.2987 -2.2551 0.0 0
M  V30 5 C -2.5975 -1.5113 0.0 0 CFG=2
M  V30 6 C 1.2987 -3.7546 0.0 0
M  V30 7 C 2.5975 -1.5113 0.0 0
M  V30 8 C -3.8963 -2.2669 0.0 0
M  V30 9 C -2.5975 -0.0118 0.0 0
M  V30 10 C 2.5975 -4.5103 0.0 0
M  V30 11 C 3.8963 -2.2551 0.0 0
M  V30 12 C -5.1951 -1.5231 0.0 0
M  V30 13 C 3.8963 -3.7546 0.0 0
M  V30 14 C -6.4939 -2.2787 0.0 0
M  V30 15 C -7.7927 -1.5349 0.0 0
M  V30 16 C -9.0915 -2.2905 0.0 0
M  V30 END ATOM
M  V30 BEGIN BOND
M  V30 1 2 1 2
M  V30 2 1 2 3
M  V30 3 1 2 4
M  V30 4 1 3 5
M  V30 5 2 4 6
M  V30 6 1 4 7
M  V30 7 1 5 8
M  V30 8 1 5 9 CFG=3
M  V30 9 1 6 10
M  V30 10 2 7 11
M  V30 11 1 8 12
M  V30 12 2 10 13
M  V30 13 1 12 14
M  V30 14 1 14 15
M  V30 15 1 15 16
M  V30 16 1 11 13
M  V30 END BOND
M  V30 BEGIN COLLECTION
M  V30 MDLV30/STERAC1 ATOMS=(1 5)
M  V30 END COLLECTION
M  V30 END CTAB
M  END
>  <Molecule Name>
Benzoic acid, 2-heptyl ester

>  <Activity Label>
0

>  <SMILES>
CCCCCC(C)OC(c1ccccc1)=O

>  <Molecular Formula>
C14H20O2

>  <InChIKey>
WMGISUKBJZWCDP-UHFFFAOYSA-N

>  <Repellency>
Inactive

>  <Reference DOI>
10.3390/toxics11100837

>  <Target Organism>
Not applied

$$$$
Compound 690
Actelion Java MolfileCreator 2.0

  0  0  0  0  0  0              0 V3000
M  V30 BEGIN CTAB
M  V30 COUNTS 16 16 0 0 0
M  V30 BEGIN ATOM
M  V30 1 O 0.0 0.0 0.0 0
M  V30 2 C -1.2994 -0.7442 0.0 0
M  V30 3 C 1.2994 -0.7442 0.0 0
M  V30 4 O 0.0 -1.5002 0.0 0
M  V30 5 C -2.5988 0.0118 0.0 0
M  V30 6 C -1.2994 -2.2444 0.0 0
M  V30 7 C 2.5988 0.0 0.0 0
M  V30 8 C 0.0 -3.0004 0.0 0
M  V30 9 C -3.8982 -0.7324 0.0 0
M  V30 10 C -2.5988 -2.9886 0.0 0
M  V30 11 C 3.8982 -0.7442 0.0 0
M  V30 12 C 1.2994 -3.7565 0.0 0
M  V30 13 C -3.8982 -2.2326 0.0 0
M  V30 14 C 5.1977 0.0 0.0 0
M  V30 15 C 1.2994 -5.2567 0.0 0
M  V30 16 C 2.5988 -6.0128 0.0 0
M  V30 END ATOM
M  V30 BEGIN BOND
M  V30 1 1 1 2
M  V30 2 1 1 3
M  V30 3 1 2 4
M  V30 4 1 2 5
M  V30 5 1 2 6
M  V30 6 1 3 7
M  V30 7 1 4 8
M  V30 8 1 5 9
M  V30 9 1 6 10
M  V30 10 1 7 11
M  V30 11 1 8 12
M  V30 12 1 9 13
M  V30 13 1 11 14
M  V30 14 1 12 15
M  V30 15 1 15 16
M  V30 16 1 10 13
M  V30 END BOND
M  V30 END CTAB
M  END
>  <Molecule Name>
Cyclohexanone dibutyl ketal

>  <Activity Label>
0

>  <SMILES>
CCCCOC1(CCCCC1)OCCCC

>  <Molecular Formula>
C14H28O2

>  <InChIKey>
JIIZXZFZZLOMMR-UHFFFAOYSA-N

>  <Repellency>
Inactive

>  <Reference DOI>
10.3390/toxics11100837

>  <Target Organism>
Not applied

$$$$
Compound 691
Actelion Java MolfileCreator 2.0

  0  0  0  0  0  0              0 V3000
M  V30 BEGIN CTAB
M  V30 COUNTS 16 16 0 0 0
M  V30 BEGIN ATOM
M  V30 1 Cl 0.0 0.0 0.0 0
M  V30 2 C 0.0 -1.5004 0.0 0
M  V30 3 C -1.2995 -2.2565 0.0 0
M  V30 4 C 1.2995 -2.2565 0.0 0
M  V30 5 O -2.5991 -1.5122 0.0 0
M  V30 6 C -1.2995 -3.757 0.0 0
M  V30 7 C 1.2995 -3.757 0.0 0
M  V30 8 C -3.8987 -2.2565 0.0 0
M  V30 9 C 0.0 -4.5013 0.0 0
M  V30 10 C 2.5991 -4.5131 0.0 0
M  V30 11 C -5.1983 -1.5122 0.0 0
M  V30 12 C 2.5991 -6.0135 0.0 0
M  V30 13 C 4.0996 -4.5131 0.0 0
M  V30 14 C 3.3435 -3.2135 0.0 0
M  V30 15 O -6.4979 -2.2565 0.0 0
M  V30 16 C 3.8987 -6.7697 0.0 0
M  V30 END ATOM
M  V30 BEGIN BOND
M  V30 1 1 1 2
M  V30 2 2 2 3
M  V30 3 1 2 4
M  V30 4 1 3 5
M  V30 5 1 3 6
M  V30 6 2 4 7
M  V30 7 1 5 8
M  V30 8 2 6 9
M  V30 9 1 7 10
M  V30 10 1 8 11
M  V30 11 1 10 12
M  V30 12 1 10 13
M  V30 13 1 10 14
M  V30 14 1 11 15
M  V30 15 1 12 16
M  V30 16 1 7 9
M  V30 END BOND
M  V30 END CTAB
M  END
>  <Molecule Name>
2(4-tert-Amyl-2-chlorophenoxy) ethanol

>  <Activity Label>
0

>  <SMILES>
CCC(C)(C)c(cc1)cc(Cl)c1OCCO

>  <Molecular Formula>
C13H19O2Cl

>  <InChIKey>
UAYZTXKXMQHPHP-UHFFFAOYSA-N

>  <Repellency>
Inactive

>  <Reference DOI>
10.3390/toxics11100837

>  <Target Organism>
Not applied

$$$$
Compound 692
Actelion Java MolfileCreator 2.0

  0  0  0  0  0  0              0 V3000
M  V30 BEGIN CTAB
M  V30 COUNTS 16 16 0 0 0
M  V30 BEGIN ATOM
M  V30 1 Cl 0.0 0.0 0.0 0
M  V30 2 C 1.2991 0.744 0.0 0
M  V30 3 C 2.5982 -0.0118 0.0 0 CFG=2
M  V30 4 C 3.8973 0.7322 0.0 0
M  V30 5 C 2.5982 -1.5116 0.0 0
M  V30 6 O 5.1964 -0.0236 0.0 0
M  V30 7 C 6.4955 0.7204 0.0 0
M  V30 8 O 6.4955 2.2202 0.0 0
M  V30 9 C 7.7946 -0.0354 0.0 0
M  V30 10 C 9.0937 0.7086 0.0 0
M  V30 11 C 10.3928 -0.0472 0.0 0
M  V30 12 C 10.3928 -1.5471 0.0 0
M  V30 13 C 11.6919 0.6967 0.0 0
M  V30 14 C 11.6919 -2.3029 0.0 0
M  V30 15 C 12.991 -0.0472 0.0 0
M  V30 16 C 12.991 -1.5471 0.0 0
M  V30 END ATOM
M  V30 BEGIN BOND
M  V30 1 1 1 2
M  V30 2 1 2 3
M  V30 3 1 3 4
M  V30 4 1 3 5 CFG=3
M  V30 5 1 4 6
M  V30 6 1 6 7
M  V30 7 2 7 8
M  V30 8 1 7 9
M  V30 9 2 9 10 CFG=2
M  V30 10 1 10 11
M  V30 11 2 11 12
M  V30 12 1 11 13
M  V30 13 1 12 14
M  V30 14 2 13 15
M  V30 15 2 14 16
M  V30 16 1 15 16
M  V30 END BOND
M  V30 BEGIN COLLECTION
M  V30 MDLV30/STERAC1 ATOMS=(1 3)
M  V30 END COLLECTION
M  V30 END CTAB
M  END
>  <Molecule Name>
Cinnamic acid, 3-chloro-2-methylpropyl ester

>  <Activity Label>
0

>  <SMILES>
CC(COC(C=Cc1ccccc1)=O)CCl

>  <Molecular Formula>
C13H15O2Cl

>  <InChIKey>
LCWXLCIBGGDTEX-UHFFFAOYSA-N

>  <Repellency>
Inactive

>  <Reference DOI>
10.3390/toxics11100837

>  <Target Organism>
Not applied

$$$$
Compound 693
Actelion Java MolfileCreator 2.0

  0  0  0  0  0  0              0 V3000
M  V30 BEGIN CTAB
M  V30 COUNTS 16 16 0 0 0
M  V30 BEGIN ATOM
M  V30 1 Cl 0.0 0.0 0.0 0
M  V30 2 C 1.3007 -0.7567 0.0 0
M  V30 3 C 2.6014 -0.0118 0.0 0
M  V30 4 C 1.3007 -2.2584 0.0 0
M  V30 5 C 3.9021 -0.7685 0.0 0
M  V30 6 C 2.6014 1.4898 0.0 0
M  V30 7 C 2.6014 -3.0034 0.0 0
M  V30 8 O 5.2028 -0.0236 0.0 0
M  V30 9 C 3.9021 -2.2703 0.0 0
M  V30 10 Cl 2.6014 -4.5051 0.0 0
M  V30 11 C 6.5035 -0.7685 0.0 0
M  V30 12 C 7.8042 -0.0236 0.0 0
M  V30 13 O 9.1049 -0.7685 0.0 0
M  V30 14 C 10.4056 -0.0236 0.0 0
M  V30 15 C 11.7063 -0.7685 0.0 0
M  V30 16 Cl 13.007 -0.0236 0.0 0
M  V30 END ATOM
M  V30 BEGIN BOND
M  V30 1 1 1 2
M  V30 2 2 2 3
M  V30 3 1 2 4
M  V30 4 1 3 5
M  V30 5 1 3 6
M  V30 6 2 4 7
M  V30 7 1 5 8
M  V30 8 2 5 9
M  V30 9 1 7 10
M  V30 10 1 8 11
M  V30 11 1 11 12
M  V30 12 1 12 13
M  V30 13 1 13 14
M  V30 14 1 14 15
M  V30 15 1 15 16
M  V30 16 1 7 9
M  V30 END BOND
M  V30 END CTAB
M  END
>  <Molecule Name>
1-(2-Chloroethoxy)-2-(4,6-dichloro-2-toloxy)ethane

>  <Activity Label>
0

>  <SMILES>
Cc(c(OCCOCCCl)cc(Cl)c1)c1Cl

>  <Molecular Formula>
C11H13O2Cl3

>  <InChIKey>
WCDGPURYDKSZNS-UHFFFAOYSA-N

>  <Repellency>
Inactive

>  <Reference DOI>
10.3390/toxics11100837

>  <Target Organism>
Not applied

$$$$
Compound 694
Actelion Java MolfileCreator 2.0

  0  0  0  0  0  0              0 V3000
M  V30 BEGIN CTAB
M  V30 COUNTS 16 16 0 0 0
M  V30 BEGIN ATOM
M  V30 1 O 0.0 0.0 0.0 0
M  V30 2 C 0.0 -1.4998 0.0 0
M  V30 3 C -1.2991 -2.2557 0.0 0
M  V30 4 C 1.2991 -2.2557 0.0 0
M  V30 5 C -2.5982 -1.5116 0.0 0
M  V30 6 C -1.2991 -3.7556 0.0 0
M  V30 7 C 2.5982 -1.5116 0.0 0
M  V30 8 C -3.8973 -2.2675 0.0 0
M  V30 9 C 0.0 -4.4996 0.0 0
M  V30 10 C 3.8973 -2.2675 0.0 0
M  V30 11 C 2.5982 -0.0118 0.0 0
M  V30 12 C -5.1964 -1.5235 0.0 0
M  V30 13 C 5.1964 -1.5235 0.0 0
M  V30 14 C 3.8973 0.7322 0.0 0
M  V30 15 C -6.4955 -2.2793 0.0 0
M  V30 16 C 5.1964 -0.0236 0.0 0
M  V30 END ATOM
M  V30 BEGIN BOND
M  V30 1 1 1 2
M  V30 2 1 2 3
M  V30 3 1 2 4
M  V30 4 1 3 5
M  V30 5 1 3 6
M  V30 6 1 4 7
M  V30 7 1 5 8
M  V30 8 1 6 9
M  V30 9 2 7 10
M  V30 10 1 7 11
M  V30 11 1 8 12
M  V30 12 1 10 13
M  V30 13 2 11 14
M  V30 14 1 12 15
M  V30 15 2 13 16
M  V30 16 1 14 16
M  V30 END BOND
M  V30 END CTAB
M  END
>  <Molecule Name>
1-Phenyl-3-ethyl-2-heptanol

>  <Activity Label>
0

>  <SMILES>
CCCCC(CC)C(Cc1ccccc1)O

>  <Molecular Formula>
C15H24O

>  <InChIKey>
AFXHNTGKSQRTMI-UHFFFAOYSA-N

>  <Repellency>
Inactive

>  <Reference DOI>
10.3390/toxics11100837

>  <Target Organism>
Not applied

$$$$
Compound 695
Actelion Java MolfileCreator 2.0

  0  0  0  0  0  0              0 V3000
M  V30 BEGIN CTAB
M  V30 COUNTS 16 16 0 0 0
M  V30 BEGIN ATOM
M  V30 1 O 0.0 0.0 0.0 0
M  V30 2 C 1.2987 0.7438 0.0 0
M  V30 3 C -1.2987 0.7438 0.0 0
M  V30 4 C 2.5975 -0.0118 0.0 0
M  V30 5 C -2.5975 -0.0118 0.0 0
M  V30 6 C 2.5975 -1.5112 0.0 0
M  V30 7 C 3.8963 0.732 0.0 0
M  V30 8 C -3.8963 0.732 0.0 0
M  V30 9 C 3.8963 -2.2669 0.0 0
M  V30 10 C 5.195 -0.0118 0.0 0
M  V30 11 C -5.195 -0.0236 0.0 0
M  V30 12 C 5.195 -1.5231 0.0 0
M  V30 13 C -6.4938 0.7202 0.0 0
M  V30 14 C -7.7926 -0.0354 0.0 0
M  V30 15 C -9.0914 0.7084 0.0 0
M  V30 16 C -10.3901 -0.0472 0.0 0
M  V30 END ATOM
M  V30 BEGIN BOND
M  V30 1 1 1 2
M  V30 2 1 1 3
M  V30 3 1 2 4
M  V30 4 1 3 5
M  V30 5 2 4 6
M  V30 6 1 4 7
M  V30 7 1 5 8
M  V30 8 1 6 9
M  V30 9 2 7 10
M  V30 10 1 8 11
M  V30 11 2 9 12
M  V30 12 1 11 13
M  V30 13 1 13 14
M  V30 14 1 14 15
M  V30 15 1 15 16
M  V30 16 1 10 12
M  V30 END BOND
M  V30 END CTAB
M  END
>  <Molecule Name>
Octyl benzyl ether

>  <Activity Label>
0

>  <SMILES>
CCCCCCCCOCc1ccccc1

>  <Molecular Formula>
C15H24O

>  <InChIKey>
NXZJVIKVJAKQOU-UHFFFAOYSA-N

>  <Repellency>
Inactive

>  <Reference DOI>
10.3390/toxics11100837

>  <Target Organism>
Not applied

$$$$
Compound 696
Actelion Java MolfileCreator 2.0

  0  0  0  0  0  0              0 V3000
M  V30 BEGIN CTAB
M  V30 COUNTS 16 16 0 0 0
M  V30 BEGIN ATOM
M  V30 1 O 0.0 0.0 0.0 0
M  V30 2 C 0.0 -1.5002 0.0 0 CFG=2
M  V30 3 C -1.2994 -2.2562 0.0 0
M  V30 4 C 1.2994 -2.2562 0.0 0
M  V30 5 C -1.2994 -3.7565 0.0 0
M  V30 6 C -2.5988 -1.512 0.0 0
M  V30 7 C 2.5988 -1.512 0.0 0
M  V30 8 C 0.0 -4.5007 0.0 0
M  V30 9 C -3.8982 -2.268 0.0 0
M  V30 10 C 2.5988 -0.0118 0.0 0
M  V30 11 C 3.8982 -2.2562 0.0 0
M  V30 12 C 3.8982 0.7442 0.0 0
M  V30 13 C 1.2994 0.7324 0.0 0
M  V30 14 C 5.1977 -1.5002 0.0 0
M  V30 15 C 5.1977 0.0 0.0 0
M  V30 16 C 6.4971 -2.2444 0.0 0
M  V30 END ATOM
M  V30 BEGIN BOND
M  V30 1 1 2 1 CFG=1
M  V30 2 1 2 3
M  V30 3 1 2 4
M  V30 4 1 3 5
M  V30 5 1 3 6
M  V30 6 1 4 7
M  V30 7 1 5 8
M  V30 8 1 6 9
M  V30 9 2 7 10
M  V30 10 1 7 11
M  V30 11 1 10 12
M  V30 12 1 10 13
M  V30 13 2 11 14
M  V30 14 2 12 15
M  V30 15 1 14 16
M  V30 16 1 14 15
M  V30 END BOND
M  V30 BEGIN COLLECTION
M  V30 MDLV30/STERAC1 ATOMS=(1 2)
M  V30 END COLLECTION
M  V30 END CTAB
M  END
>  <Molecule Name>
1-(2,5-Dimethylphenyl)-3-ethyl- 2-pentanol

>  <Activity Label>
0

>  <SMILES>
CCC(CC)C(Cc1c(C)ccc(C)c1)O

>  <Molecular Formula>
C15H24O

>  <InChIKey>
AOBNSIDOFRQGMI-UHFFFAOYSA-N

>  <Repellency>
Inactive

>  <Reference DOI>
10.3390/toxics11100837

>  <Target Organism>
Not applied

$$$$
Compound 697
Actelion Java MolfileCreator 2.0

  0  0  0  0  0  0              0 V3000
M  V30 BEGIN CTAB
M  V30 COUNTS 16 16 0 0 0
M  V30 BEGIN ATOM
M  V30 1 Cl 0.0 0.0 0.0 0
M  V30 2 C 0.0 -1.5013 0.0 0
M  V30 3 C 1.3003 -2.2579 0.0 0
M  V30 4 C -1.3003 -2.2461 0.0 0
M  V30 5 O 2.6007 -1.5131 0.0 0
M  V30 6 C 1.3003 -3.7593 0.0 0
M  V30 7 C -1.3003 -3.7474 0.0 0
M  V30 8 C 3.9011 -2.2579 0.0 0
M  V30 9 C 0.0 -4.504 0.0 0
M  V30 10 C -2.6007 -4.4922 0.0 0
M  V30 11 C 5.2015 -1.5131 0.0 0
M  V30 12 C -1.856 -5.7926 0.0 0
M  V30 13 C -3.9011 -5.237 0.0 0
M  V30 14 C -3.3455 -3.1918 0.0 0
M  V30 15 Cl 6.5019 -2.2579 0.0 0
M  V30 16 C 5.2015 -0.0118 0.0 0
M  V30 END ATOM
M  V30 BEGIN BOND
M  V30 1 1 1 2
M  V30 2 2 2 3
M  V30 3 1 2 4
M  V30 4 1 3 5
M  V30 5 1 3 6
M  V30 6 2 4 7
M  V30 7 1 5 8
M  V30 8 2 6 9
M  V30 9 1 7 10
M  V30 10 1 8 11
M  V30 11 1 10 12
M  V30 12 1 10 13
M  V30 13 1 10 14
M  V30 14 1 11 15
M  V30 15 2 11 16
M  V30 16 1 7 9
M  V30 END BOND
M  V30 END CTAB
M  END
>  <Molecule Name>
4 -tert-Butyl-2-chlorophenyl 2-chloroallyl ether

>  <Activity Label>
0

>  <SMILES>
CC(C)(C)c(cc1)cc(Cl)c1OCC(Cl)=C

>  <Molecular Formula>
C13H16OCl2

>  <InChIKey>
MWUOJCZASODTMU-UHFFFAOYSA-N

>  <Repellency>
Inactive

>  <Reference DOI>
10.3390/toxics11100837

>  <Target Organism>
Not applied

$$$$
Compound 698
Actelion Java MolfileCreator 2.0

  0  0  0  0  0  0              0 V3000
M  V30 BEGIN CTAB
M  V30 COUNTS 16 16 0 0 0
M  V30 BEGIN ATOM
M  V30 1 Cl 0.0 0.0 0.0 0
M  V30 2 C 0.0 1.5013 0.0 0
M  V30 3 C 1.3003 2.2461 0.0 0
M  V30 4 C -1.3003 2.2461 0.0 0
M  V30 5 C 1.3003 3.7474 0.0 0
M  V30 6 C -1.3003 3.7474 0.0 0
M  V30 7 C 0.0 4.504 0.0 0
M  V30 8 C 2.6007 4.4922 0.0 0
M  V30 9 O 0.0 6.0054 0.0 0
M  V30 10 C 3.9011 3.7474 0.0 0
M  V30 11 C 5.2015 4.4922 0.0 0
M  V30 12 C 6.5019 3.7474 0.0 0
M  V30 13 C 7.8023 4.4922 0.0 0
M  V30 14 C 9.1027 3.7474 0.0 0
M  V30 15 C 10.4031 4.4922 0.0 0
M  V30 16 C 11.7034 3.7474 0.0 0
M  V30 END ATOM
M  V30 BEGIN BOND
M  V30 1 1 1 2
M  V30 2 2 2 3
M  V30 3 1 2 4
M  V30 4 1 3 5
M  V30 5 2 4 6
M  V30 6 2 5 7
M  V30 7 1 5 8
M  V30 8 1 7 9
M  V30 9 1 8 10
M  V30 10 1 10 11
M  V30 11 1 11 12
M  V30 12 1 12 13
M  V30 13 1 13 14
M  V30 14 1 14 15
M  V30 15 1 15 16
M  V30 16 1 6 7
M  V30 END BOND
M  V30 END CTAB
M  END
>  <Molecule Name>
2-Octyl-4-chlorophenol

>  <Activity Label>
0

>  <SMILES>
CCCCCCCCc(cc(cc1)Cl)c1O

>  <Molecular Formula>
C14H21OCl

>  <InChIKey>
GWVUUFNNGPSKRX-UHFFFAOYSA-N

>  <Repellency>
Inactive

>  <Reference DOI>
10.3390/toxics11100837

>  <Target Organism>
Not applied

$$$$
Compound 699
Actelion Java MolfileCreator 2.0

  0  0  0  0  0  0              0 V3000
M  V30 BEGIN CTAB
M  V30 COUNTS 16 16 0 0 0
M  V30 BEGIN ATOM
M  V30 1 Cl 0.0 0.0 0.0 0
M  V30 2 C -1.3005 -0.7448 0.0 0
M  V30 3 C -2.601 0.0 0.0 0 CFG=2
M  V30 4 C -3.9016 -0.7448 0.0 0
M  V30 5 C -2.601 1.5015 0.0 0
M  V30 6 O -5.2021 0.0 0.0 0
M  V30 7 C -6.5026 -0.7448 0.0 0
M  V30 8 C -7.8032 0.0118 0.0 0
M  V30 9 C -6.5026 -2.2463 0.0 0
M  V30 10 C -9.1037 -0.733 0.0 0
M  V30 11 C -7.8032 -2.9912 0.0 0
M  V30 12 C -9.1037 -2.2345 0.0 0
M  V30 13 C -10.4043 -2.9794 0.0 0
M  V30 14 C -9.6594 -4.2799 0.0 0
M  V30 15 C -11.7048 -3.7242 0.0 0
M  V30 16 C -11.1491 -1.6788 0.0 0
M  V30 END ATOM
M  V30 BEGIN BOND
M  V30 1 1 1 2
M  V30 2 1 2 3
M  V30 3 1 3 4
M  V30 4 1 3 5 CFG=3
M  V30 5 1 4 6
M  V30 6 1 6 7
M  V30 7 2 7 8
M  V30 8 1 7 9
M  V30 9 1 8 10
M  V30 10 2 9 11
M  V30 11 2 10 12
M  V30 12 1 12 13
M  V30 13 1 13 14
M  V30 14 1 13 15
M  V30 15 1 13 16
M  V30 16 1 11 12
M  V30 END BOND
M  V30 BEGIN COLLECTION
M  V30 MDLV30/STERAC1 ATOMS=(1 3)
M  V30 END COLLECTION
M  V30 END CTAB
M  END
>  <Molecule Name>
4-tert-Butylphenyl 3-chloro-2-methyl-propyl ether

>  <Activity Label>
0

>  <SMILES>
CC(COc1ccc(C(C)(C)C)cc1)CCl

>  <Molecular Formula>
C14H21OCl

>  <InChIKey>
RYUKSEUTTSDATC-UHFFFAOYSA-N

>  <Repellency>
Inactive

>  <Reference DOI>
10.3390/toxics11100837

>  <Target Organism>
Not applied

$$$$
Compound 700
Actelion Java MolfileCreator 2.0

  0  0  0  0  0  0              0 V3000
M  V30 BEGIN CTAB
M  V30 COUNTS 16 16 0 0 0
M  V30 BEGIN ATOM
M  V30 1 O 0.0 0.0 0.0 0
M  V30 2 C -1.3005 0.7448 0.0 0
M  V30 3 C -1.3005 2.2464 0.0 0
M  V30 4 C -2.6011 0.0 0.0 0
M  V30 5 C -2.6011 2.9912 0.0 0
M  V30 6 C -3.9016 0.7448 0.0 0
M  V30 7 C -3.9016 2.2464 0.0 0
M  V30 8 C -2.6011 4.4928 0.0 0
M  V30 9 C -5.2022 -0.0118 0.0 0
M  V30 10 C -5.2022 2.9912 0.0 0
M  V30 11 C -6.5027 0.733 0.0 0
M  V30 12 C -5.2022 -1.5133 0.0 0
M  V30 13 O -5.2022 4.4928 0.0 0
M  V30 14 O -6.5027 2.2464 0.0 0
M  V30 15 C -7.8033 2.9912 0.0 0
M  V30 16 C -9.1039 2.2464 0.0 0
M  V30 END ATOM
M  V30 BEGIN BOND
M  V30 1 2 1 2
M  V30 2 1 2 3
M  V30 3 1 2 4
M  V30 4 2 3 5
M  V30 5 1 4 6
M  V30 6 1 5 7
M  V30 7 1 5 8
M  V30 8 1 6 9
M  V30 9 1 7 10
M  V30 10 1 9 11
M  V30 11 1 9 12
M  V30 12 2 10 13
M  V30 13 1 10 14
M  V30 14 1 14 15
M  V30 15 1 15 16
M  V30 16 1 6 7
M  V30 END BOND
M  V30 END CTAB
M  END
>  <Molecule Name>
6-iso-Propyl-2-methyl-4-oxo-2-cyclohexene-1-carboxylic acid, ethyl ester

>  <Activity Label>
0

>  <SMILES>
CCOC(C(C(C1)C(C)C)C(C)=CC1=O)=O

>  <Molecular Formula>
C13H20O3

>  <InChIKey>
QBMOPULUXAKJTR-UHFFFAOYSA-N

>  <Repellency>
Inactive

>  <Reference DOI>
10.3390/toxics11100837

>  <Target Organism>
Not applied

$$$$
Compound 701
Actelion Java MolfileCreator 2.0

  0  0  0  0  0  0              0 V3000
M  V30 BEGIN CTAB
M  V30 COUNTS 16 16 0 0 0
M  V30 BEGIN ATOM
M  V30 1 O 0.0 0.0 0.0 0
M  V30 2 C 0.0 1.5002 0.0 0
M  V30 3 O -1.2994 2.2445 0.0 0
M  V30 4 C 1.2994 2.2445 0.0 0
M  V30 5 C -2.5989 1.4884 0.0 0 CFG=1
M  V30 6 C 2.5989 1.4884 0.0 0
M  V30 7 O -3.9692 2.1027 0.0 0
M  V30 8 C -2.7524 0.0 0.0 0
M  V30 9 C 3.8983 2.2327 0.0 0
M  V30 10 C -4.9733 0.9923 0.0 0
M  V30 11 C -4.2173 -0.3071 0.0 0
M  V30 12 C 5.1978 1.4766 0.0 0
M  V30 13 C 6.4972 2.2208 0.0 0
M  V30 14 C 7.7967 1.4648 0.0 0
M  V30 15 C 9.0961 2.209 0.0 0
M  V30 16 C 10.3956 1.453 0.0 0
M  V30 END ATOM
M  V30 BEGIN BOND
M  V30 1 2 1 2
M  V30 2 1 2 3
M  V30 3 1 2 4
M  V30 4 1 5 3 CFG=3
M  V30 5 1 4 6
M  V30 6 1 5 7
M  V30 7 1 5 8
M  V30 8 1 6 9
M  V30 9 1 7 10
M  V30 10 1 8 11
M  V30 11 1 9 12
M  V30 12 1 12 13
M  V30 13 1 13 14
M  V30 14 1 14 15
M  V30 15 1 15 16
M  V30 16 1 10 11
M  V30 END BOND
M  V30 BEGIN COLLECTION
M  V30 MDLV30/STERAC1 ATOMS=(1 5)
M  V30 END COLLECTION
M  V30 END CTAB
M  END
>  <Molecule Name>
Pelargonic acid, tetrahydrofuryl ester

>  <Activity Label>
0

>  <SMILES>
CCCCCCCCC(OC1OCCC1)=O

>  <Molecular Formula>
C13H24O3

>  <InChIKey>
JLVPYTIQHNCGBU-UHFFFAOYSA-N

>  <Repellency>
Inactive

>  <Reference DOI>
10.3390/toxics11100837

>  <Target Organism>
Not applied

$$$$
Compound 702
Actelion Java MolfileCreator 2.0

  0  0  0  0  0  0              0 V3000
M  V30 BEGIN CTAB
M  V30 COUNTS 16 16 0 0 0
M  V30 BEGIN ATOM
M  V30 1 O 0.0 0.0 0.0 0
M  V30 2 C 0.0 -1.5004 0.0 0
M  V30 3 O -1.2995 -2.2447 0.0 0
M  V30 4 C 1.2995 -2.2447 0.0 0
M  V30 5 C -2.5991 -1.5004 0.0 0
M  V30 6 C 2.5991 -1.5004 0.0 0
M  V30 7 C -3.8987 -2.2447 0.0 0
M  V30 8 C -5.1983 -1.4886 0.0 0
M  V30 9 C -3.8987 -3.7452 0.0 0
M  V30 10 O -5.1983 0.0118 0.0 0
M  V30 11 C -6.4979 -2.2329 0.0 0
M  V30 12 C -5.1983 -4.4895 0.0 0
M  V30 13 C -6.4979 0.7679 0.0 0
M  V30 14 C -6.4979 -3.7333 0.0 0
M  V30 15 C -6.4979 2.2683 0.0 0
M  V30 16 C -7.7975 3.0245 0.0 0
M  V30 END ATOM
M  V30 BEGIN BOND
M  V30 1 2 1 2
M  V30 2 1 2 3
M  V30 3 1 2 4
M  V30 4 1 3 5
M  V30 5 1 4 6
M  V30 6 1 5 7
M  V30 7 2 7 8
M  V30 8 1 7 9
M  V30 9 1 8 10
M  V30 10 1 8 11
M  V30 11 2 9 12
M  V30 12 1 10 13
M  V30 13 2 11 14
M  V30 14 1 13 15
M  V30 15 1 15 16
M  V30 16 1 12 14
M  V30 END BOND
M  V30 END CTAB
M  END
>  <Molecule Name>
Propionic acid, o-n-propoxybenzyl ester

>  <Activity Label>
0

>  <SMILES>
CCCOc1c(COC(CC)=O)cccc1

>  <Molecular Formula>
C13H18O3

>  <InChIKey>
GHPVLVIGIYTDQX-UHFFFAOYSA-N

>  <Repellency>
Inactive

>  <Reference DOI>
10.3390/toxics11100837

>  <Target Organism>
Not applied

$$$$
Compound 703
Actelion Java MolfileCreator 2.0

  0  0  0  0  0  0              0 V3000
M  V30 BEGIN CTAB
M  V30 COUNTS 16 16 0 0 0
M  V30 BEGIN ATOM
M  V30 1 O 0.0 0.0 0.0 0
M  V30 2 C 0.0 -1.5017 0.0 0
M  V30 3 O 1.3007 -2.2466 0.0 0
M  V30 4 C -1.3007 -2.2466 0.0 0
M  V30 5 C 2.6014 -1.5017 0.0 0
M  V30 6 C -2.6014 -1.5017 0.0 0
M  V30 7 C -2.0456 -3.5473 0.0 0
M  V30 8 C -0.5439 -3.5473 0.0 0
M  V30 9 C 3.9021 -2.2466 0.0 0
M  V30 10 O -3.9021 -2.2466 0.0 0
M  V30 11 C -2.6014 0.0 0.0 0
M  V30 12 C -1.3007 0.7449 0.0 0
M  V30 13 C -3.9021 0.7449 0.0 0
M  V30 14 C -1.3007 2.2466 0.0 0
M  V30 15 C -3.9021 2.2466 0.0 0
M  V30 16 C -2.6014 2.9916 0.0 0
M  V30 END ATOM
M  V30 BEGIN BOND
M  V30 1 2 1 2
M  V30 2 1 2 3
M  V30 3 1 2 4
M  V30 4 1 3 5
M  V30 5 1 4 6
M  V30 6 1 4 7
M  V30 7 1 4 8
M  V30 8 1 5 9
M  V30 9 2 6 10
M  V30 10 1 6 11
M  V30 11 2 11 12
M  V30 12 1 11 13
M  V30 13 1 12 14
M  V30 14 2 13 15
M  V30 15 2 14 16
M  V30 16 1 15 16
M  V30 END BOND
M  V30 END CTAB
M  END
>  <Molecule Name>
alpha-Methyl-alpha-benzoylpropionic acid, ethyl ester

>  <Activity Label>
0

>  <SMILES>
CCOC(C(C)(C)C(c1ccccc1)=O)=O

>  <Molecular Formula>
C13H16O3

>  <InChIKey>
BNIXMGBGYGZYND-UHFFFAOYSA-N

>  <Repellency>
Inactive

>  <Reference DOI>
10.3390/toxics11100837

>  <Target Organism>
Not applied

$$$$
Compound 704
Actelion Java MolfileCreator 2.0

  0  0  0  0  0  0              0 V3000
M  V30 BEGIN CTAB
M  V30 COUNTS 16 16 0 0 0
M  V30 BEGIN ATOM
M  V30 1 O 0.0 0.0 0.0 0
M  V30 2 C 0.0 -1.5013 0.0 0
M  V30 3 O 1.3003 -2.2461 0.0 0
M  V30 4 C -1.3003 -2.2461 0.0 0
M  V30 5 C 2.6007 -1.5013 0.0 0
M  V30 6 O -1.3003 -3.7474 0.0 0
M  V30 7 C -2.6007 -1.5013 0.0 0
M  V30 8 C 3.9011 -2.2461 0.0 0
M  V30 9 C -3.9011 -2.2461 0.0 0
M  V30 10 C -5.2015 -1.5013 0.0 0
M  V30 11 C -6.5019 -2.2461 0.0 0
M  V30 12 C -7.8023 -1.4895 0.0 0
M  V30 13 C -6.5019 -3.7474 0.0 0
M  V30 14 C -9.1027 -2.2343 0.0 0
M  V30 15 C -7.8023 -4.4922 0.0 0
M  V30 16 C -9.1027 -3.7356 0.0 0
M  V30 END ATOM
M  V30 BEGIN BOND
M  V30 1 2 1 2
M  V30 2 1 2 3
M  V30 3 1 2 4
M  V30 4 1 3 5
M  V30 5 2 4 6
M  V30 6 1 4 7
M  V30 7 1 5 8
M  V30 8 1 7 9
M  V30 9 1 9 10
M  V30 10 1 10 11
M  V30 11 2 11 12
M  V30 12 1 11 13
M  V30 13 1 12 14
M  V30 14 2 13 15
M  V30 15 2 14 16
M  V30 16 1 15 16
M  V30 END BOND
M  V30 END CTAB
M  END
>  <Molecule Name>
alpha-Keto-delta-phenylvaleric acid, ethyl ester

>  <Activity Label>
0

>  <SMILES>
CCOC(C(CCCc1ccccc1)=O)=O

>  <Molecular Formula>
C13H16O3

>  <InChIKey>
MJCZYRJTANZIEI-UHFFFAOYSA-N

>  <Repellency>
Inactive

>  <Reference DOI>
10.3390/toxics11100837

>  <Target Organism>
Not applied

$$$$
Compound 705
Actelion Java MolfileCreator 2.0

  0  0  0  0  0  0              0 V3000
M  V30 BEGIN CTAB
M  V30 COUNTS 16 16 0 0 0
M  V30 BEGIN ATOM
M  V30 1 O 0.0 0.0 0.0 0
M  V30 2 C 0.0 1.501 0.0 0
M  V30 3 O -1.3001 2.2456 0.0 0
M  V30 4 C 1.3001 2.2456 0.0 0
M  V30 5 C -2.6002 1.4892 0.0 0
M  V30 6 O 2.6711 1.631 0.0 0
M  V30 7 C 1.4537 3.7349 0.0 0
M  V30 8 C -3.9004 2.2338 0.0 0
M  V30 9 C 3.6758 2.7421 0.0 0
M  V30 10 C 2.9194 4.0422 0.0 0
M  V30 11 C -5.2005 1.4774 0.0 0
M  V30 12 C 5.1651 2.5884 0.0 0
M  V30 13 C 5.7797 1.2174 0.0 0
M  V30 14 C 6.5361 3.203 0.0 0
M  V30 15 C 5.3187 4.0777 0.0 0
M  V30 16 C 7.2689 1.0637 0.0 0
M  V30 END ATOM
M  V30 BEGIN BOND
M  V30 1 2 1 2
M  V30 2 1 2 3
M  V30 3 1 2 4
M  V30 4 1 3 5
M  V30 5 1 4 6
M  V30 6 2 4 7
M  V30 7 1 5 8
M  V30 8 1 6 9
M  V30 9 1 7 10
M  V30 10 1 8 11
M  V30 11 1 9 12
M  V30 12 1 12 13
M  V30 13 1 12 14
M  V30 14 1 12 15
M  V30 15 1 13 16
M  V30 16 2 9 10
M  V30 END BOND
M  V30 END CTAB
M  END
>  <Molecule Name>
5-tert-Amylfuroic acid, n-propyl ester

>  <Activity Label>
0

>  <SMILES>
CCCOC(c1ccc(C(C)(C)CC)[o]1)=O

>  <Molecular Formula>
C13H20O3

>  <InChIKey>
PJEVFGVAUZLRGO-UHFFFAOYSA-N

>  <Repellency>
Inactive

>  <Reference DOI>
10.3390/toxics11100837

>  <Target Organism>
Not applied

$$$$
Compound 706
Actelion Java MolfileCreator 2.0

  0  0  0  0  0  0              0 V3000
M  V30 BEGIN CTAB
M  V30 COUNTS 16 16 0 0 0
M  V30 BEGIN ATOM
M  V30 1 O 0.0 0.0 0.0 0
M  V30 2 C 0.0 -1.4996 0.0 0
M  V30 3 O -1.2989 -2.2554 0.0 0
M  V30 4 C 1.2989 -2.2554 0.0 0
M  V30 5 C -2.5978 -1.5114 0.0 0
M  V30 6 O 2.5978 -1.5114 0.0 0
M  V30 7 C 0.555 -3.5543 0.0 0
M  V30 8 C 2.0546 -3.5543 0.0 0
M  V30 9 C -3.8968 -2.2672 0.0 0
M  V30 10 C 3.8968 -2.2672 0.0 0
M  V30 11 C 5.1957 -1.5233 0.0 0
M  V30 12 C 6.4947 -2.279 0.0 0
M  V30 13 C 5.1957 -0.0236 0.0 0
M  V30 14 C 7.7936 -1.5351 0.0 0
M  V30 15 C 6.4947 0.7203 0.0 0
M  V30 16 C 7.7936 -0.0354 0.0 0
M  V30 END ATOM
M  V30 BEGIN BOND
M  V30 1 2 1 2
M  V30 2 1 2 3
M  V30 3 1 2 4
M  V30 4 1 3 5
M  V30 5 1 4 6
M  V30 6 1 4 7
M  V30 7 1 4 8
M  V30 8 1 5 9
M  V30 9 1 6 10
M  V30 10 1 10 11
M  V30 11 2 11 12
M  V30 12 1 11 13
M  V30 13 1 12 14
M  V30 14 2 13 15
M  V30 15 2 14 16
M  V30 16 1 15 16
M  V30 END BOND
M  V30 END CTAB
M  END
>  <Molecule Name>
2-Benzyloxy-isobutyric acid, ethyl ester

>  <Activity Label>
0

>  <SMILES>
CCOC(C(C)(C)OCc1ccccc1)=O

>  <Molecular Formula>
C13H18O3

>  <InChIKey>
RVZHOUIPDNHWLD-UHFFFAOYSA-N

>  <Repellency>
Inactive

>  <Reference DOI>
10.3390/toxics11100837

>  <Target Organism>
Not applied

$$$$
Compound 707
Actelion Java MolfileCreator 2.0

  0  0  0  0  0  0              0 V3000
M  V30 BEGIN CTAB
M  V30 COUNTS 16 16 0 0 0
M  V30 BEGIN ATOM
M  V30 1 O 0.0 0.0 0.0 0
M  V30 2 C 0.0 1.4987 0.0 0
M  V30 3 O -1.2981 2.254 0.0 0
M  V30 4 C 1.2981 2.254 0.0 0
M  V30 5 C -2.5963 1.4987 0.0 0
M  V30 6 C 2.5963 1.4987 0.0 0
M  V30 7 C 1.2981 3.7528 0.0 0
M  V30 8 C -3.8944 2.254 0.0 0
M  V30 9 C 3.8944 2.2422 0.0 0
M  V30 10 C 2.5963 4.4963 0.0 0
M  V30 11 C -5.1926 1.4987 0.0 0
M  V30 12 C 3.8944 3.741 0.0 0
M  V30 13 C -6.4907 2.254 0.0 0
M  V30 14 O 5.1926 4.4845 0.0 0
M  V30 15 C -7.7889 1.4987 0.0 0
M  V30 16 C 5.1926 5.9832 0.0 0
M  V30 END ATOM
M  V30 BEGIN BOND
M  V30 1 2 1 2
M  V30 2 1 2 3
M  V30 3 1 2 4
M  V30 4 1 3 5
M  V30 5 2 4 6
M  V30 6 1 4 7
M  V30 7 1 5 8
M  V30 8 1 6 9
M  V30 9 2 7 10
M  V30 10 1 8 11
M  V30 11 2 9 12
M  V30 12 1 11 13
M  V30 13 1 12 14
M  V30 14 1 13 15
M  V30 15 1 14 16
M  V30 16 1 10 12
M  V30 END BOND
M  V30 END CTAB
M  END
>  <Molecule Name>
Anisic acid, n-amyl ester

>  <Activity Label>
0

>  <SMILES>
CCCCCOC(c(cc1)ccc1OC)=O

>  <Molecular Formula>
C13H18O3

>  <InChIKey>
DNJKWCMASVISFH-UHFFFAOYSA-N

>  <Repellency>
Inactive

>  <Reference DOI>
10.3390/toxics11100837

>  <Target Organism>
Not applied

$$$$
Compound 708
Actelion Java MolfileCreator 2.0

  0  0  0  0  0  0              0 V3000
M  V30 BEGIN CTAB
M  V30 COUNTS 16 16 0 0 0
M  V30 BEGIN ATOM
M  V30 1 O 0.0 0.0 0.0 0
M  V30 2 C 0.0 1.4996 0.0 0
M  V30 3 O 1.2989 2.2436 0.0 0
M  V30 4 O -1.2989 2.2436 0.0 0
M  V30 5 C 2.5978 1.4878 0.0 0
M  V30 6 C -2.5978 1.4878 0.0 0
M  V30 7 C 2.5978 -0.0118 0.0 0
M  V30 8 C 3.8968 2.2318 0.0 0
M  V30 9 C -3.8968 2.2318 0.0 0
M  V30 10 C 3.8968 -0.7675 0.0 0
M  V30 11 C 5.1957 1.4878 0.0 0
M  V30 12 C -5.1957 1.476 0.0 0
M  V30 13 C 5.1957 -0.0118 0.0 0
M  V30 14 C -6.4947 2.22 0.0 0
M  V30 15 C 6.4947 -0.7675 0.0 0
M  V30 16 C -7.7936 1.4642 0.0 0
M  V30 END ATOM
M  V30 BEGIN BOND
M  V30 1 2 1 2
M  V30 2 1 2 3
M  V30 3 1 2 4
M  V30 4 1 3 5
M  V30 5 1 4 6
M  V30 6 2 5 7
M  V30 7 1 5 8
M  V30 8 1 6 9
M  V30 9 1 7 10
M  V30 10 2 8 11
M  V30 11 1 9 12
M  V30 12 2 10 13
M  V30 13 1 12 14
M  V30 14 1 13 15
M  V30 15 1 14 16
M  V30 16 1 11 13
M  V30 END BOND
M  V30 END CTAB
M  END
>  <Molecule Name>
Carbonic acid, p-tolyl amyl ester

>  <Activity Label>
0

>  <SMILES>
CCCCCOC(Oc1ccc(C)cc1)=O

>  <Molecular Formula>
C13H18O3

>  <InChIKey>
CLBQJJNDAMZBCI-UHFFFAOYSA-N

>  <Repellency>
Inactive

>  <Reference DOI>
10.3390/toxics11100837

>  <Target Organism>
Not applied

$$$$
Compound 709
Actelion Java MolfileCreator 2.0

  0  0  0  0  0  0              0 V3000
M  V30 BEGIN CTAB
M  V30 COUNTS 16 16 0 0 0
M  V30 BEGIN ATOM
M  V30 1 O 0.0 0.0 0.0 0
M  V30 2 C 0.0 -1.4993 0.0 0
M  V30 3 O -1.2986 -2.2549 0.0 0
M  V30 4 C 1.2986 -2.2549 0.0 0
M  V30 5 C -2.5972 -1.5111 0.0 0
M  V30 6 C 2.5972 -1.5111 0.0 0
M  V30 7 C -2.5972 -0.0118 0.0 0
M  V30 8 C -3.8959 -2.2667 0.0 0
M  V30 9 C 3.8959 -2.2667 0.0 0
M  V30 10 C 5.1945 -1.5111 0.0 0
M  V30 11 C 3.8959 -3.766 0.0 0
M  V30 12 O 5.1945 -0.0118 0.0 0
M  V30 13 C 6.4931 -2.2549 0.0 0
M  V30 14 C 5.1945 -4.5098 0.0 0
M  V30 15 C 6.4931 0.7437 0.0 0
M  V30 16 C 6.4931 -3.7542 0.0 0
M  V30 END ATOM
M  V30 BEGIN BOND
M  V30 1 2 1 2
M  V30 2 1 2 3
M  V30 3 1 2 4
M  V30 4 1 3 5
M  V30 5 2 4 6
M  V30 6 1 5 7
M  V30 7 1 5 8
M  V30 8 1 6 9
M  V30 9 2 9 10
M  V30 10 1 9 11
M  V30 11 1 10 12
M  V30 12 1 10 13
M  V30 13 2 11 14
M  V30 14 1 12 15
M  V30 15 2 13 16
M  V30 16 1 14 16
M  V30 END BOND
M  V30 END CTAB
M  END
>  <Molecule Name>
trans-o-Methoxycinnamic acid, iso-propyl ester

>  <Activity Label>
0

>  <SMILES>
CC(C)OC(/C=C/c(cccc1)c1OC)=O

>  <Molecular Formula>
C13H16O3

>  <InChIKey>
OQBSEORHDBHHJT-CMDGGOBGSA-N

>  <Repellency>
Inactive

>  <Reference DOI>
10.3390/toxics11100837

>  <Target Organism>
Not applied

$$$$
Compound 710
Actelion Java MolfileCreator 2.0

  0  0  0  0  0  0              0 V3000
M  V30 BEGIN CTAB
M  V30 COUNTS 16 16 0 0 0
M  V30 BEGIN ATOM
M  V30 1 O 0.0 0.0 0.0 0
M  V30 2 C -1.2986 0.7437 0.0 0
M  V30 3 C 1.2986 0.7437 0.0 0
M  V30 4 O -1.2986 2.2431 0.0 0
M  V30 5 O -2.5972 -0.0118 0.0 0
M  V30 6 C -1.2986 -0.7555 0.0 0
M  V30 7 C 2.5972 -0.0118 0.0 0
M  V30 8 C 0.0 2.9868 0.0 0
M  V30 9 C -3.8959 0.7319 0.0 0
M  V30 10 C -2.5972 -1.5111 0.0 0
M  V30 11 C 0.0 -1.5111 0.0 0
M  V30 12 C 0.0 4.4862 0.0 0
M  V30 13 C -5.1945 -0.0236 0.0 0
M  V30 14 C -2.5972 -3.0104 0.0 0
M  V30 15 C 0.0 -3.0104 0.0 0
M  V30 16 C -1.2986 -3.766 0.0 0
M  V30 END ATOM
M  V30 BEGIN BOND
M  V30 1 1 1 2
M  V30 2 1 1 3
M  V30 3 1 2 4
M  V30 4 1 2 5
M  V30 5 1 2 6
M  V30 6 1 3 7
M  V30 7 1 4 8
M  V30 8 1 5 9
M  V30 9 2 6 10
M  V30 10 1 6 11
M  V30 11 1 8 12
M  V30 12 1 9 13
M  V30 13 1 10 14
M  V30 14 2 11 15
M  V30 15 2 14 16
M  V30 16 1 15 16
M  V30 END BOND
M  V30 END CTAB
M  END
>  <Molecule Name>
Orthobenzoic acid, triethyl ester

>  <Activity Label>
0

>  <SMILES>
CCOC(c1ccccc1)(OCC)OCC

>  <Molecular Formula>
C13H20O3

>  <InChIKey>
BQFPCTXLBRVFJL-UHFFFAOYSA-N

>  <Repellency>
Inactive

>  <Reference DOI>
10.3390/toxics11100837

>  <Target Organism>
Not applied

$$$$
Compound 711
Actelion Java MolfileCreator 2.0

  0  0  0  0  0  0              0 V3000
M  V30 BEGIN CTAB
M  V30 COUNTS 16 16 0 0 0
M  V30 BEGIN ATOM
M  V30 1 Cl 0.0 0.0 0.0 0
M  V30 2 C -1.3003 0.7447 0.0 0
M  V30 3 C -2.6007 0.0 0.0 0
M  V30 4 O -2.6007 -1.5013 0.0 0
M  V30 5 O -3.9011 0.7447 0.0 0
M  V30 6 C -5.2015 0.0 0.0 0
M  V30 7 C -6.5019 0.7447 0.0 0
M  V30 8 O -7.8023 0.0 0.0 0
M  V30 9 C -9.1027 0.7447 0.0 0 CFG=2
M  V30 10 C -10.4031 0.0 0.0 0
M  V30 11 C -9.1027 2.2461 0.0 0
M  V30 12 C -11.7034 0.7565 0.0 0
M  V30 13 C -10.4031 -1.5013 0.0 0
M  V30 14 C -13.0038 0.0118 0.0 0
M  V30 15 C -11.7034 -2.2461 0.0 0
M  V30 16 C -13.0038 -1.4895 0.0 0
M  V30 END ATOM
M  V30 BEGIN BOND
M  V30 1 1 1 2
M  V30 2 1 2 3
M  V30 3 2 3 4
M  V30 4 1 3 5
M  V30 5 1 5 6
M  V30 6 1 6 7
M  V30 7 1 7 8
M  V30 8 1 8 9
M  V30 9 1 9 10
M  V30 10 1 9 11 CFG=3
M  V30 11 2 10 12
M  V30 12 1 10 13
M  V30 13 1 12 14
M  V30 14 2 13 15
M  V30 15 2 14 16
M  V30 16 1 15 16
M  V30 END BOND
M  V30 BEGIN COLLECTION
M  V30 MDLV30/STERAC1 ATOMS=(1 9)
M  V30 END COLLECTION
M  V30 END CTAB
M  END
>  <Molecule Name>
Chloroacetic acid, 2-(1-phenyl-ethoxy)ethyl ester

>  <Activity Label>
0

>  <SMILES>
CC(c1ccccc1)OCCOC(CCl)=O

>  <Molecular Formula>
C12H15O3Cl

>  <InChIKey>
YVHMHOKPUBHHNQ-UHFFFAOYSA-N

>  <Repellency>
Inactive

>  <Reference DOI>
10.3390/toxics11100837

>  <Target Organism>
Not applied

$$$$
Compound 712
Actelion Java MolfileCreator 2.0

  0  0  0  0  0  0              0 V3000
M  V30 BEGIN CTAB
M  V30 COUNTS 16 16 0 0 0
M  V30 BEGIN ATOM
M  V30 1 O 0.0 0.0 0.0 0
M  V30 2 C 0.0 1.4998 0.0 0
M  V30 3 O -1.2991 2.2439 0.0 0
M  V30 4 C 1.2991 2.2439 0.0 0
M  V30 5 C -2.5982 1.488 0.0 0
M  V30 6 C 2.5982 1.488 0.0 0
M  V30 7 C -3.8973 2.2321 0.0 0
M  V30 8 C 3.8973 2.2321 0.0 0
M  V30 9 C -5.1964 1.4762 0.0 0
M  V30 10 O 5.1964 1.4762 0.0 0
M  V30 11 N 3.8973 3.7319 0.0 0
M  V30 12 C 5.1964 4.476 0.0 0
M  V30 13 C 2.5982 4.4878 0.0 0
M  V30 14 C 5.1964 5.9759 0.0 0
M  V30 15 C 2.5982 5.9877 0.0 0
M  V30 16 O 3.8973 6.7317 0.0 0
M  V30 END ATOM
M  V30 BEGIN BOND
M  V30 1 2 1 2
M  V30 2 1 2 3
M  V30 3 1 2 4
M  V30 4 1 3 5
M  V30 5 1 4 6
M  V30 6 1 5 7
M  V30 7 1 6 8
M  V30 8 1 7 9
M  V30 9 2 8 10
M  V30 10 1 8 11
M  V30 11 1 11 12
M  V30 12 1 11 13
M  V30 13 1 12 14
M  V30 14 1 13 15
M  V30 15 1 14 16
M  V30 16 1 15 16
M  V30 END BOND
M  V30 END CTAB
M  END
>  <Molecule Name>
gamma-Oxo-4-morpholinebutyric acid, propyl ester

>  <Activity Label>
0

>  <SMILES>
CCCOC(CCC(N1CCOCC1)=O)=O

>  <Molecular Formula>
C11H19NO4

>  <InChIKey>
BRIJWMDRLRMJBI-UHFFFAOYSA-N

>  <Repellency>
Inactive

>  <Reference DOI>
10.3390/toxics11100837

>  <Target Organism>
Not applied

$$$$
Compound 713
Actelion Java MolfileCreator 2.0

  0  0  0  0  0  0              0 V3000
M  V30 BEGIN CTAB
M  V30 COUNTS 16 16 0 0 0
M  V30 BEGIN ATOM
M  V30 1 O 0.0 0.0 0.0 0
M  V30 2 C 0.0 -1.4996 0.0 0
M  V30 3 O -1.2989 -2.2554 0.0 0
M  V30 4 C 1.2989 -2.2554 0.0 0
M  V30 5 C -2.5978 -1.5114 0.0 0
M  V30 6 C 1.2989 -3.7551 0.0 0
M  V30 7 C 2.5978 -1.5114 0.0 0
M  V30 8 C -3.8968 -2.2672 0.0 0
M  V30 9 N 0.0 -4.499 0.0 0
M  V30 10 C 2.5978 -4.5108 0.0 0
M  V30 11 C 3.8968 -2.2554 0.0 0
M  V30 12 C -5.1957 -1.5233 0.0 0
M  V30 13 C 3.8968 -3.7551 0.0 0
M  V30 14 C -6.4947 -2.279 0.0 0
M  V30 15 C -7.7936 -1.5351 0.0 0
M  V30 16 C -9.0925 -2.2908 0.0 0
M  V30 END ATOM
M  V30 BEGIN BOND
M  V30 1 2 1 2
M  V30 2 1 2 3
M  V30 3 1 2 4
M  V30 4 1 3 5
M  V30 5 2 4 6
M  V30 6 1 4 7
M  V30 7 1 5 8
M  V30 8 1 6 9
M  V30 9 1 6 10
M  V30 10 2 7 11
M  V30 11 1 8 12
M  V30 12 2 10 13
M  V30 13 1 12 14
M  V30 14 1 14 15
M  V30 15 1 15 16
M  V30 16 1 11 13
M  V30 END BOND
M  V30 END CTAB
M  END
>  <Molecule Name>
Anthranilic acid, n-hexyl ester

>  <Activity Label>
0

>  <SMILES>
CCCCCCOC(c(cccc1)c1N)=O

>  <Molecular Formula>
C13H19NO2

>  <InChIKey>
YMQOKTHPONOAKK-UHFFFAOYSA-N

>  <Repellency>
Inactive

>  <Reference DOI>
10.3390/toxics11100837

>  <Target Organism>
Not applied

$$$$
Compound 714
Actelion Java MolfileCreator 2.0

  0  0  0  0  0  0              0 V3000
M  V30 BEGIN CTAB
M  V30 COUNTS 16 16 0 0 0
M  V30 BEGIN ATOM
M  V30 1 O 0.0 0.0 0.0 0
M  V30 2 C -1.2991 0.744 0.0 0
M  V30 3 O -2.5982 -0.0118 0.0 0
M  V30 4 C -1.2991 2.2439 0.0 0 CFG=1
M  V30 5 C -3.8973 0.7322 0.0 0
M  V30 6 C 0.0 2.9997 0.0 0
M  V30 7 C -2.5982 2.9879 0.0 0
M  V30 8 C -5.1964 -0.0236 0.0 0
M  V30 9 N 1.2991 3.7556 0.0 0
M  V30 10 C -2.5982 4.4878 0.0 0
M  V30 11 C -3.8973 5.2318 0.0 0
M  V30 12 C -3.8973 6.7317 0.0 0
M  V30 13 C -5.1964 4.476 0.0 0
M  V30 14 C -5.1964 7.4757 0.0 0
M  V30 15 C -6.4955 5.22 0.0 0
M  V30 16 C -6.4955 6.7199 0.0 0
M  V30 END ATOM
M  V30 BEGIN BOND
M  V30 1 2 1 2
M  V30 2 1 2 3
M  V30 3 1 2 4
M  V30 4 1 3 5
M  V30 5 1 4 6 CFG=3
M  V30 6 1 4 7
M  V30 7 1 5 8
M  V30 8 3 6 9
M  V30 9 1 7 10
M  V30 10 1 10 11
M  V30 11 2 11 12
M  V30 12 1 11 13
M  V30 13 1 12 14
M  V30 14 2 13 15
M  V30 15 2 14 16
M  V30 16 1 15 16
M  V30 END BOND
M  V30 BEGIN COLLECTION
M  V30 MDLV30/STERAC1 ATOMS=(1 4)
M  V30 END COLLECTION
M  V30 END CTAB
M  END
>  <Molecule Name>
Phenylethylcyanoacetic acid, ethyl ester

>  <Activity Label>
0

>  <SMILES>
CCOC(C(CCc1ccccc1)C#N)=O

>  <Molecular Formula>
C13H15NO2

>  <InChIKey>
CZZKRHOLRJNATP-UHFFFAOYSA-N

>  <Repellency>
Inactive

>  <Reference DOI>
10.3390/toxics11100837

>  <Target Organism>
Not applied

$$$$
Compound 715
Actelion Java MolfileCreator 2.0

  0  0  0  0  0  0              0 V3000
M  V30 BEGIN CTAB
M  V30 COUNTS 16 16 0 0 0
M  V30 BEGIN ATOM
M  V30 1 O 0.0 0.0 0.0 0
M  V30 2 C -1.2987 0.7438 0.0 0
M  V30 3 O -2.5975 -0.0118 0.0 0
M  V30 4 C -1.2987 2.2433 0.0 0
M  V30 5 C -3.8963 0.732 0.0 0
M  V30 6 C 0.0 2.999 0.0 0
M  V30 7 C -2.5975 2.9872 0.0 0
M  V30 8 C -5.1951 -0.0236 0.0 0
M  V30 9 N 1.2987 3.7546 0.0 0
M  V30 10 C -2.5975 4.4867 0.0 0
M  V30 11 C -3.8963 2.2315 0.0 0
M  V30 12 C -1.2987 5.2423 0.0 0
M  V30 13 C -3.8963 5.2305 0.0 0
M  V30 14 C -1.2987 6.7418 0.0 0
M  V30 15 C -3.8963 6.73 0.0 0
M  V30 16 C -2.5975 7.4857 0.0 0
M  V30 END ATOM
M  V30 BEGIN BOND
M  V30 1 2 1 2
M  V30 2 1 2 3
M  V30 3 1 2 4
M  V30 4 1 3 5
M  V30 5 1 4 6
M  V30 6 2 4 7 CFG=2
M  V30 7 1 5 8
M  V30 8 3 6 9
M  V30 9 1 7 10
M  V30 10 1 7 11
M  V30 11 2 10 12
M  V30 12 1 10 13
M  V30 13 1 12 14
M  V30 14 2 13 15
M  V30 15 2 14 16
M  V30 16 1 15 16
M  V30 END BOND
M  V30 END CTAB
M  END
>  <Molecule Name>
(1-Phenylethylidene)cyanoacetic acid, ethyl ester

>  <Activity Label>
0

>  <SMILES>
CCOC(C(C#N)=C(C)c1ccccc1)=O

>  <Molecular Formula>
C13H13NO2

>  <InChIKey>
AJDOTEWSLNGINB-UHFFFAOYSA-N

>  <Repellency>
Inactive

>  <Reference DOI>
10.3390/toxics11100837

>  <Target Organism>
Not applied

$$$$
Compound 716
Actelion Java MolfileCreator 2.0

  0  0  0  0  0  0              0 V3000
M  V30 BEGIN CTAB
M  V30 COUNTS 16 16 0 0 0
M  V30 BEGIN ATOM
M  V30 1 S 0.0 0.0 0.0 0
M  V30 2 O 0.7449 1.3006 0.0 0
M  V30 3 O -0.7449 1.3006 0.0 0
M  V30 4 N 1.3006 -0.7449 0.0 0
M  V30 5 C -1.3006 -0.7449 0.0 0
M  V30 6 C 2.6013 0.0 0.0 0
M  V30 7 C -2.6013 0.0118 0.0 0
M  V30 8 C -1.3006 -2.2466 0.0 0
M  V30 9 C 3.902 -0.7449 0.0 0
M  V30 10 C -3.902 -0.7331 0.0 0
M  V30 11 C -2.6013 -2.9915 0.0 0
M  V30 12 C 5.2027 0.0 0.0 0
M  V30 13 C -3.902 -2.2348 0.0 0
M  V30 14 C 6.5034 -0.7449 0.0 0
M  V30 15 C -5.2027 -2.9797 0.0 0
M  V30 16 C 7.8041 0.0 0.0 0
M  V30 END ATOM
M  V30 BEGIN BOND
M  V30 1 2 1 2
M  V30 2 2 1 3
M  V30 3 1 1 4
M  V30 4 1 1 5
M  V30 5 1 4 6
M  V30 6 2 5 7
M  V30 7 1 5 8
M  V30 8 1 6 9
M  V30 9 1 7 10
M  V30 10 2 8 11
M  V30 11 1 9 12
M  V30 12 2 10 13
M  V30 13 1 12 14
M  V30 14 1 13 15
M  V30 15 1 14 16
M  V30 16 1 11 13
M  V30 END BOND
M  V30 END CTAB
M  END
>  <Molecule Name>
N-Amyl-p-toluenesulfonamide

>  <Activity Label>
0

>  <SMILES>
CCCCCNS(c1ccc(C)cc1)(=O)=O

>  <Molecular Formula>
C12H19NO2S

>  <InChIKey>
DZTRTXFIVUJZAU-UHFFFAOYSA-N

>  <Repellency>
Inactive

>  <Reference DOI>
10.3390/toxics11100837

>  <Target Organism>
Not applied

$$$$
Compound 717
Actelion Java MolfileCreator 2.0

  0  0  0  0  0  0              0 V3000
M  V30 BEGIN CTAB
M  V30 COUNTS 16 16 0 0 0
M  V30 BEGIN ATOM
M  V30 1 O 0.0 0.0 0.0 0
M  V30 2 C 0.0 -1.5013 0.0 0
M  V30 3 N 1.3003 -2.2461 0.0 0
M  V30 4 C -1.3003 -2.2461 0.0 0
M  V30 5 C 1.3003 -3.7474 0.0 0
M  V30 6 C 2.6007 -1.5013 0.0 0
M  V30 7 C -2.6007 -1.5013 0.0 0
M  V30 8 C 0.0 -4.4922 0.0 0
M  V30 9 C 2.6007 -4.504 0.0 0
M  V30 10 C 3.9011 -2.2461 0.0 0
M  V30 11 C -3.9011 -2.2461 0.0 0
M  V30 12 C 0.0 -5.9936 0.0 0
M  V30 13 C 2.6007 -6.0054 0.0 0
M  V30 14 C 5.2015 -1.5013 0.0 0
M  V30 15 C 1.3003 -6.7501 0.0 0
M  V30 16 C 6.5019 -2.2461 0.0 0
M  V30 END ATOM
M  V30 BEGIN BOND
M  V30 1 2 1 2
M  V30 2 1 2 3
M  V30 3 1 2 4
M  V30 4 1 3 5
M  V30 5 1 3 6
M  V30 6 2 4 7
M  V30 7 2 5 8
M  V30 8 1 5 9
M  V30 9 1 6 10
M  V30 10 1 7 11
M  V30 11 1 8 12
M  V30 12 2 9 13
M  V30 13 1 10 14
M  V30 14 2 12 15
M  V30 15 1 14 16
M  V30 16 1 13 15
M  V30 END BOND
M  V30 END CTAB
M  END
>  <Molecule Name>
N-n-Butylcrotonanilide

>  <Activity Label>
0

>  <SMILES>
CCCCN(C(/C=C/C)=O)c1ccccc1

>  <Molecular Formula>
C14H19NO

>  <InChIKey>
WZOPMCWFHOMZFK-RUDMXATFSA-N

>  <Repellency>
Inactive

>  <Reference DOI>
10.3390/toxics11100837

>  <Target Organism>
Not applied

$$$$
Compound 718
Actelion Java MolfileCreator 2.0

  0  0  0  0  0  0              0 V3000
M  V30 BEGIN CTAB
M  V30 COUNTS 16 16 0 0 0
M  V30 BEGIN ATOM
M  V30 1 O 0.0 0.0 0.0 0
M  V30 2 C 1.2987 -0.7556 0.0 0
M  V30 3 N 1.2987 -2.2551 0.0 0
M  V30 4 C 2.5975 -0.0118 0.0 0
M  V30 5 C 2.5975 -3.0108 0.0 0
M  V30 6 C 0.0 -3.0108 0.0 0
M  V30 7 C 2.5975 1.4877 0.0 0
M  V30 8 C 3.8963 -2.2669 0.0 0
M  V30 9 C -1.2987 -2.2669 0.0 0
M  V30 10 C 3.8963 2.2315 0.0 0
M  V30 11 C 1.2987 2.2433 0.0 0
M  V30 12 C 5.1951 -3.0226 0.0 0
M  V30 13 C -2.5975 -3.0226 0.0 0
M  V30 14 C 3.8963 3.731 0.0 0
M  V30 15 C 1.2987 3.7428 0.0 0
M  V30 16 C 2.5975 4.4867 0.0 0
M  V30 END ATOM
M  V30 BEGIN BOND
M  V30 1 2 1 2
M  V30 2 1 2 3
M  V30 3 1 2 4
M  V30 4 1 3 5
M  V30 5 1 3 6
M  V30 6 1 4 7
M  V30 7 1 5 8
M  V30 8 1 6 9
M  V30 9 2 7 10
M  V30 10 1 7 11
M  V30 11 1 8 12
M  V30 12 1 9 13
M  V30 13 1 10 14
M  V30 14 2 11 15
M  V30 15 2 14 16
M  V30 16 1 15 16
M  V30 END BOND
M  V30 END CTAB
M  END
>  <Molecule Name>
N,N-Dipropyl-alpha-toluamide

>  <Activity Label>
0

>  <SMILES>
CCCN(CCC)C(Cc1ccccc1)=O

>  <Molecular Formula>
C14H21NO

>  <InChIKey>
OKYGTHBXCGINMN-UHFFFAOYSA-N

>  <Repellency>
Inactive

>  <Reference DOI>
10.3390/toxics11100837

>  <Target Organism>
Not applied

$$$$
Compound 719
Actelion Java MolfileCreator 2.0

  0  0  0  0  0  0              0 V3000
M  V30 BEGIN CTAB
M  V30 COUNTS 16 16 0 0 0
M  V30 BEGIN ATOM
M  V30 1 O 0.0 0.0 0.0 0
M  V30 2 C -1.2984 0.7554 0.0 0
M  V30 3 N -1.2984 2.2546 0.0 0
M  V30 4 C -2.5969 0.0118 0.0 0
M  V30 5 C -2.5969 3.01 0.0 0
M  V30 6 C 0.0 2.9982 0.0 0
M  V30 7 C -3.8954 0.7554 0.0 0
M  V30 8 C -3.8954 2.2664 0.0 0
M  V30 9 C -2.5969 4.5092 0.0 0
M  V30 10 C 1.2984 2.2428 0.0 0
M  V30 11 C -5.1938 3.0218 0.0 0
M  V30 12 C 2.5969 2.9864 0.0 0
M  V30 13 O -6.4923 2.2782 0.0 0
M  V30 14 O -5.1938 4.521 0.0 0
M  V30 15 C 3.8954 2.231 0.0 0
M  V30 16 C -6.4923 5.2765 0.0 0
M  V30 END ATOM
M  V30 BEGIN BOND
M  V30 1 2 1 2
M  V30 2 1 2 3
M  V30 3 1 2 4
M  V30 4 1 3 5
M  V30 5 1 3 6
M  V30 6 1 4 7
M  V30 7 2 5 8
M  V30 8 1 5 9
M  V30 9 1 6 10
M  V30 10 1 8 11
M  V30 11 1 10 12
M  V30 12 2 11 13
M  V30 13 1 11 14
M  V30 14 1 12 15
M  V30 15 1 14 16
M  V30 16 1 7 8
M  V30 END BOND
M  V30 END CTAB
M  END
>  <Molecule Name>
1-Butyl-1,4,5,6-tetrahydro-2-methyl-6-oxo-nicotinic acid, methyl ester

>  <Activity Label>
0

>  <SMILES>
CCCCN(C(C)=C(CC1)C(OC)=O)C1=O

>  <Molecular Formula>
C12H19NO3

>  <InChIKey>
HXORINRVRJRXOT-UHFFFAOYSA-N

>  <Repellency>
Inactive

>  <Reference DOI>
10.3390/toxics11100837

>  <Target Organism>
Not applied

$$$$
Compound 720
Actelion Java MolfileCreator 2.0

  0  0  0  0  0  0              0 V3000
M  V30 BEGIN CTAB
M  V30 COUNTS 16 16 0 0 0
M  V30 BEGIN ATOM
M  V30 1 O 0.0 0.0 0.0 0
M  V30 2 C 0.0 1.5 0.0 0
M  V30 3 O -1.2992 2.2442 0.0 0
M  V30 4 C 1.2992 2.2442 0.0 0
M  V30 5 C -2.5985 1.4882 0.0 0
M  V30 6 C -3.8978 2.2323 0.0 0
M  V30 7 N -5.1971 1.4764 0.0 0
M  V30 8 C -5.1971 -0.0236 0.0 0
M  V30 9 C -6.4963 2.2205 0.0 0
M  V30 10 C -6.4963 -0.7677 0.0 0
M  V30 11 C -3.8978 -0.7795 0.0 0
M  V30 12 O -7.7956 1.4646 0.0 0
M  V30 13 C -6.4963 3.7206 0.0 0
M  V30 14 C -6.4963 -2.2678 0.0 0
M  V30 15 C -3.8978 -2.2796 0.0 0
M  V30 16 C -5.1971 -3.0237 0.0 0
M  V30 END ATOM
M  V30 BEGIN BOND
M  V30 1 2 1 2
M  V30 2 1 2 3
M  V30 3 1 2 4
M  V30 4 1 3 5
M  V30 5 1 5 6
M  V30 6 1 6 7
M  V30 7 1 7 8
M  V30 8 1 7 9
M  V30 9 2 8 10
M  V30 10 1 8 11
M  V30 11 2 9 12
M  V30 12 1 9 13
M  V30 13 1 10 14
M  V30 14 2 11 15
M  V30 15 2 14 16
M  V30 16 1 15 16
M  V30 END BOND
M  V30 END CTAB
M  END
>  <Molecule Name>
N-(2-Acetoxyethyl)acetanilide

>  <Activity Label>
0

>  <SMILES>
CC(N(CCOC(C)=O)c1ccccc1)=O

>  <Molecular Formula>
C12H15NO3

>  <InChIKey>
IGXHOQNEKVKXSV-UHFFFAOYSA-N

>  <Repellency>
Inactive

>  <Reference DOI>
10.3390/toxics11100837

>  <Target Organism>
Not applied

$$$$
Compound 721
Actelion Java MolfileCreator 2.0

  0  0  0  0  0  0              0 V3000
M  V30 BEGIN CTAB
M  V30 COUNTS 16 18 0 0 0
M  V30 BEGIN ATOM
M  V30 1 O 0.0 0.0 0.0 0
M  V30 2 C -1.3176 -0.5502 0.0 0 CFG=1
M  V30 3 C -2.4036 -1.6362 0.0 0 CFG=1
M  V30 4 C -1.6217 0.8977 0.0 0
M  V30 5 C -0.5212 -1.7375 0.0 0
M  V30 6 C -3.7792 -2.3022 0.0 0
M  V30 7 C -2.4181 0.2027 0.0 0
M  V30 8 C -3.0552 1.2162 0.0 0
M  V30 9 C -4.8507 -1.2307 0.0 0 CFG=1
M  V30 10 C -4.6624 -3.4172 0.0 0
M  V30 11 C -3.3013 -3.6488 0.0 0
M  V30 12 C -4.1556 0.1158 0.0 0 CFG=2
M  V30 13 C -6.2552 -0.9846 0.0 0
M  V30 14 C -5.1982 1.1004 0.0 0 CFG=1
M  V30 15 C -6.4434 0.4199 0.0 0
M  V30 16 C -5.0099 2.5049 0.0 0
M  V30 END ATOM
M  V30 BEGIN BOND
M  V30 1 1 2 1 CFG=1
M  V30 2 1 2 3
M  V30 3 1 2 4
M  V30 4 1 2 5
M  V30 5 1 3 6
M  V30 6 1 3 7 CFG=3
M  V30 7 1 4 8
M  V30 8 1 6 9
M  V30 9 1 6 10
M  V30 10 1 6 11
M  V30 11 1 7 12
M  V30 12 1 9 13 CFG=3
M  V30 13 1 12 14
M  V30 14 1 13 15
M  V30 15 1 14 16 CFG=1
M  V30 16 1 12 8 CFG=1
M  V30 17 1 9 12
M  V30 18 1 14 15
M  V30 END BOND
M  V30 BEGIN COLLECTION
M  V30 MDLV30/STEABS ATOMS=(5 2 3 9 12 14)
M  V30 END COLLECTION
M  V30 END CTAB
M  END
>  <Molecule Name>
Cedrol

>  <Activity Label>
0

>  <SMILES>
C[C@H](CC1)[C@@](C2)(CC3)[C@@H]1C(C)(C)[C@@H]2[C@]3(C)O

>  <Molecular Formula>
C15H26O

>  <InChIKey>
SVURIXNDRWRAFU-OGMFBOKVSA-N

>  <Repellency>
Inactive

>  <Reference DOI>
10.3390/toxics11100837

>  <Target Organism>
Not applied

$$$$
Compound 722
Actelion Java MolfileCreator 2.0

  0  0  0  0  0  0              0 V3000
M  V30 BEGIN CTAB
M  V30 COUNTS 16 17 0 0 0
M  V30 BEGIN ATOM
M  V30 1 O 0.0 0.0 0.0 0
M  V30 2 C 1.0703 -0.9633 0.0 0
M  V30 3 O 2.4312 -0.5198 0.0 0
M  V30 4 C 0.7645 -2.37 0.0 0
M  V30 5 C 2.737 0.8868 0.0 0
M  V30 6 C 1.7278 -3.4404 0.0 0
M  V30 7 C -0.5504 -2.9511 0.0 0
M  V30 8 C 1.0091 -4.679 0.0 0
M  V30 9 C 2.1101 -5.3823 0.0 0
M  V30 10 C -1.789 -2.2324 0.0 0
M  V30 11 C -0.3975 -4.3731 0.0 0
M  V30 12 C 0.7951 -5.9634 0.0 0
M  V30 13 O -1.789 -0.7951 0.0 0
M  V30 14 O -3.0275 -2.9511 0.0 0
M  V30 15 C -4.2661 -2.2324 0.0 0
M  V30 16 C -5.5047 -2.9511 0.0 0
M  V30 END ATOM
M  V30 BEGIN BOND
M  V30 1 2 1 2
M  V30 2 1 2 3
M  V30 3 1 2 4
M  V30 4 1 3 5
M  V30 5 2 4 6
M  V30 6 1 4 7
M  V30 7 1 6 8
M  V30 8 1 6 9
M  V30 9 1 7 10
M  V30 10 1 7 11
M  V30 11 1 9 12
M  V30 12 2 10 13
M  V30 13 1 10 14
M  V30 14 1 14 15
M  V30 15 1 15 16
M  V30 16 1 8 11
M  V30 17 1 11 12
M  V30 END BOND
M  V30 END CTAB
M  END
>  <Molecule Name>
Bicyclo-(2,2,1)heptene-2,3-dicarboxylic acid, methyl ethyl ester

>  <Activity Label>
0

>  <SMILES>
CCOC(C1C(C(OC)=O)=C2CC1CC2)=O

>  <Molecular Formula>
C12H16O4

>  <InChIKey>
PTGSIEWICPUDNN-UHFFFAOYSA-N

>  <Repellency>
Inactive

>  <Reference DOI>
10.3390/toxics11100837

>  <Target Organism>
Not applied

$$$$
Compound 723
Actelion Java MolfileCreator 2.0

  0  0  0  0  0  0              0 V3000
M  V30 BEGIN CTAB
M  V30 COUNTS 16 17 0 0 0
M  V30 BEGIN ATOM
M  V30 1 O 0.0 0.0 0.0 0
M  V30 2 C 0.0 -1.5007 0.0 0
M  V30 3 O -1.2998 -2.2452 0.0 0
M  V30 4 C 1.2998 -2.2452 0.0 0
M  V30 5 C -2.5997 -1.5007 0.0 0
M  V30 6 C 2.5997 -1.5007 0.0 0
M  V30 7 C -3.8996 -2.2452 0.0 0
M  V30 8 C 3.8996 -2.2452 0.0 0
M  V30 9 C -5.1994 -1.4889 0.0 0
M  V30 10 C -3.8996 -3.7459 0.0 0
M  V30 11 C -6.4993 -2.2334 0.0 0
M  V30 12 C -5.1994 -4.4904 0.0 0
M  V30 13 O -7.9291 -1.7725 0.0 0
M  V30 14 C -6.4993 -3.7341 0.0 0
M  V30 15 C -8.8154 -2.9896 0.0 0
M  V30 16 O -7.9291 -4.195 0.0 0
M  V30 END ATOM
M  V30 BEGIN BOND
M  V30 1 2 1 2
M  V30 2 1 2 3
M  V30 3 1 2 4
M  V30 4 1 3 5
M  V30 5 1 4 6
M  V30 6 1 5 7
M  V30 7 1 6 8
M  V30 8 2 7 9
M  V30 9 1 7 10
M  V30 10 1 9 11
M  V30 11 2 10 12
M  V30 12 1 11 13
M  V30 13 2 11 14
M  V30 14 1 13 15
M  V30 15 1 14 16
M  V30 16 1 12 14
M  V30 17 1 15 16
M  V30 END BOND
M  V30 END CTAB
M  END
>  <Molecule Name>
Butyric acid, piperonyl ester

>  <Activity Label>
0

>  <SMILES>
CCCC(OCc(cc1)cc2c1OCO2)=O

>  <Molecular Formula>
C12H14O4

>  <InChIKey>
JGTACHFOYJUNQJ-UHFFFAOYSA-N

>  <Repellency>
Inactive

>  <Reference DOI>
10.3390/toxics11100837

>  <Target Organism>
Not applied

$$$$
Compound 724
Actelion Java MolfileCreator 2.0

  0  0  0  0  0  0              0 V3000
M  V30 BEGIN CTAB
M  V30 COUNTS 16 17 0 0 0
M  V30 BEGIN ATOM
M  V30 1 O 0.0 0.0 0.0 0
M  V30 2 C 0.0 -1.5007 0.0 0
M  V30 3 O -1.2998 -2.257 0.0 0
M  V30 4 C 1.2998 -2.257 0.0 0
M  V30 5 C -2.5996 -1.5125 0.0 0
M  V30 6 C 1.2998 -3.7577 0.0 0
M  V30 7 C 2.5996 -1.5125 0.0 0
M  V30 8 C -3.8995 -2.2688 0.0 0
M  V30 9 C 2.5996 -4.514 0.0 0
M  V30 10 C 3.8995 -2.2688 0.0 0
M  V30 11 C -5.1993 -1.5243 0.0 0
M  V30 12 O 2.9069 -5.9793 0.0 0
M  V30 13 C 3.8995 -3.7695 0.0 0
M  V30 14 C -6.4992 -2.2806 0.0 0
M  V30 15 C 4.3958 -6.1329 0.0 0
M  V30 16 O 5.0103 -4.7739 0.0 0
M  V30 END ATOM
M  V30 BEGIN BOND
M  V30 1 2 1 2
M  V30 2 1 2 3
M  V30 3 1 2 4
M  V30 4 1 3 5
M  V30 5 2 4 6
M  V30 6 1 4 7
M  V30 7 1 5 8
M  V30 8 1 6 9
M  V30 9 2 7 10
M  V30 10 1 8 11
M  V30 11 1 9 12
M  V30 12 2 9 13
M  V30 13 1 11 14
M  V30 14 1 12 15
M  V30 15 1 13 16
M  V30 16 1 10 13
M  V30 17 1 15 16
M  V30 END BOND
M  V30 END CTAB
M  END
>  <Molecule Name>
Piperonylic acid, n-butyl ester

>  <Activity Label>
0

>  <SMILES>
CCCCOC(c(cc1)cc2c1OCO2)=O

>  <Molecular Formula>
C12H14O4

>  <InChIKey>
XMLIMVGVGVNEHF-UHFFFAOYSA-N

>  <Repellency>
Inactive

>  <Reference DOI>
10.3390/toxics11100837

>  <Target Organism>
Not applied

$$$$
Compound 725
Actelion Java MolfileCreator 2.0

  0  0  0  0  0  0              0 V3000
M  V30 BEGIN CTAB
M  V30 COUNTS 16 17 0 0 0
M  V30 BEGIN ATOM
M  V30 1 O 0.0 0.0 0.0 0
M  V30 2 C 0.7445 -1.3 0.0 0 CFG=2
M  V30 3 C 1.5009 0.0 0.0 0
M  V30 4 C 0.7445 -2.8009 0.0 0
M  V30 5 O -0.5554 -3.5455 0.0 0
M  V30 6 C -0.5554 -5.0464 0.0 0
M  V30 7 C 0.7445 -5.8028 0.0 0
M  V30 8 C -1.8554 -5.7909 0.0 0
M  V30 9 C 0.7445 -7.3037 0.0 0
M  V30 10 C 2.0445 -5.0582 0.0 0
M  V30 11 C -1.8554 -7.2919 0.0 0
M  V30 12 C -0.5554 -8.0482 0.0 0
M  V30 13 C 3.3445 -5.8028 0.0 0
M  V30 14 C 4.6446 -5.0582 0.0 0
M  V30 15 C 5.9446 -5.8028 0.0 0
M  V30 16 C 7.2446 -5.0582 0.0 0
M  V30 END ATOM
M  V30 BEGIN BOND
M  V30 1 1 1 2
M  V30 2 1 1 3
M  V30 3 1 2 4 CFG=3
M  V30 4 1 4 5
M  V30 5 1 5 6
M  V30 6 2 6 7
M  V30 7 1 6 8
M  V30 8 1 7 9
M  V30 9 1 7 10
M  V30 10 2 8 11
M  V30 11 2 9 12
M  V30 12 1 10 13
M  V30 13 1 13 14
M  V30 14 1 14 15
M  V30 15 1 15 16
M  V30 16 1 2 3
M  V30 17 1 11 12
M  V30 END BOND
M  V30 BEGIN COLLECTION
M  V30 MDLV30/STERAC1 ATOMS=(1 2)
M  V30 END COLLECTION
M  V30 END CTAB
M  END
>  <Molecule Name>
1-(o-Amylphenoxy)-2,3-epoxypropane

>  <Activity Label>
0

>  <SMILES>
CCCCCc(cccc1)c1OCC1OC1

>  <Molecular Formula>
C14H20O2

>  <InChIKey>
UYBCNHLHWUHLOF-UHFFFAOYSA-N

>  <Repellency>
Inactive

>  <Reference DOI>
10.3390/toxics11100837

>  <Target Organism>
Not applied

$$$$
Compound 726
Actelion Java MolfileCreator 2.0

  0  0  0  0  0  0              0 V3000
M  V30 BEGIN CTAB
M  V30 COUNTS 16 17 0 0 0
M  V30 BEGIN ATOM
M  V30 1 O 0.0 0.0 0.0 0
M  V30 2 C 0.0 1.5005 0.0 0
M  V30 3 O -1.2997 2.2449 0.0 0
M  V30 4 C 1.2997 2.2449 0.0 0
M  V30 5 C -2.5994 1.5005 0.0 0
M  V30 6 C 2.5994 1.5005 0.0 0
M  V30 7 C -3.8991 2.2567 0.0 0
M  V30 8 C -2.5994 0.0 0.0 0
M  V30 9 C 2.5994 0.0 0.0 0
M  V30 10 C 3.8991 2.2449 0.0 0
M  V30 11 C -5.1988 1.5123 0.0 0
M  V30 12 C -3.8991 -0.7443 0.0 0
M  V30 13 C 3.8991 -0.7561 0.0 0
M  V30 14 C 5.1988 1.4887 0.0 0
M  V30 15 C -5.1988 0.0118 0.0 0
M  V30 16 C 5.1988 -0.0118 0.0 0
M  V30 END ATOM
M  V30 BEGIN BOND
M  V30 1 2 1 2
M  V30 2 1 2 3
M  V30 3 1 2 4
M  V30 4 1 3 5
M  V30 5 1 4 6
M  V30 6 1 5 7
M  V30 7 1 5 8
M  V30 8 2 6 9
M  V30 9 1 6 10
M  V30 10 1 7 11
M  V30 11 1 8 12
M  V30 12 1 9 13
M  V30 13 2 10 14
M  V30 14 1 11 15
M  V30 15 2 13 16
M  V30 16 1 12 15
M  V30 17 1 14 16
M  V30 END BOND
M  V30 END CTAB
M  END
>  <Molecule Name>
Phenylacetic acid, cyclohexyl ester

>  <Activity Label>
0

>  <SMILES>
O=C(Cc1ccccc1)OC1CCCCC1

>  <Molecular Formula>
C14H18O2

>  <InChIKey>
MNEAZOGMEQUJER-UHFFFAOYSA-N

>  <Repellency>
Inactive

>  <Reference DOI>
10.3390/toxics11100837

>  <Target Organism>
Not applied

$$$$
Compound 727
Actelion Java MolfileCreator 2.0

  0  0  0  0  0  0              0 V3000
M  V30 BEGIN CTAB
M  V30 COUNTS 16 17 0 0 0
M  V30 BEGIN ATOM
M  V30 1 O 0.0 0.0 0.0 0
M  V30 2 C 0.0 1.5005 0.0 0
M  V30 3 O -1.2997 2.2449 0.0 0
M  V30 4 C 1.2997 2.2449 0.0 0
M  V30 5 C -2.5994 1.5005 0.0 0
M  V30 6 C -3.8991 2.2567 0.0 0
M  V30 7 C -2.5994 0.0 0.0 0
M  V30 8 C -5.1988 1.5123 0.0 0
M  V30 9 C -3.8991 -0.7443 0.0 0
M  V30 10 C -5.1988 0.0118 0.0 0
M  V30 11 C -6.4985 -0.7325 0.0 0
M  V30 12 C -7.7983 0.0236 0.0 0
M  V30 13 C -6.4985 -2.2331 0.0 0
M  V30 14 C -9.098 -0.7207 0.0 0
M  V30 15 C -7.7983 -2.9775 0.0 0
M  V30 16 C -9.098 -2.2213 0.0 0
M  V30 END ATOM
M  V30 BEGIN BOND
M  V30 1 2 1 2
M  V30 2 1 2 3
M  V30 3 1 2 4
M  V30 4 1 3 5
M  V30 5 1 5 6
M  V30 6 1 5 7
M  V30 7 1 6 8
M  V30 8 1 7 9
M  V30 9 1 8 10
M  V30 10 1 10 11
M  V30 11 1 11 12
M  V30 12 1 11 13
M  V30 13 1 12 14
M  V30 14 1 13 15
M  V30 15 1 14 16
M  V30 16 1 9 10
M  V30 17 1 15 16
M  V30 END BOND
M  V30 END CTAB
M  END
>  <Molecule Name>
Acetic acid, 4-cyclohexylcyclohexyl ester

>  <Activity Label>
0

>  <SMILES>
CC(OC(CC1)CCC1C1CCCCC1)=O

>  <Molecular Formula>
C14H24O2

>  <InChIKey>
XKXBPPPSGBMJAB-UHFFFAOYSA-N

>  <Repellency>
Inactive

>  <Reference DOI>
10.3390/toxics11100837

>  <Target Organism>
Not applied

$$$$
Compound 728
Actelion Java MolfileCreator 2.0

  0  0  0  0  0  0              0 V3000
M  V30 BEGIN CTAB
M  V30 COUNTS 16 17 0 0 0
M  V30 BEGIN ATOM
M  V30 1 Cl 0.0 0.0 0.0 0
M  V30 2 C 0.0 -1.5004 0.0 0
M  V30 3 C 1.2995 -2.2565 0.0 0
M  V30 4 C -1.2995 -2.2447 0.0 0
M  V30 5 O 2.5991 -1.5122 0.0 0
M  V30 6 C 1.2995 -3.7569 0.0 0
M  V30 7 C -1.2995 -3.7451 0.0 0
M  V30 8 C 3.8987 -2.2565 0.0 0
M  V30 9 C 0.0 -4.5012 0.0 0
M  V30 10 O 3.8987 -3.7569 0.0 0
M  V30 11 C 5.1982 -1.5122 0.0 0
M  V30 12 C 6.4978 -2.2565 0.0 0
M  V30 13 C 5.1982 -0.0118 0.0 0
M  V30 14 C 7.7974 -1.5004 0.0 0
M  V30 15 C 6.4978 0.7443 0.0 0
M  V30 16 C 7.7974 0.0 0.0 0
M  V30 END ATOM
M  V30 BEGIN BOND
M  V30 1 1 1 2
M  V30 2 2 2 3
M  V30 3 1 2 4
M  V30 4 1 3 5
M  V30 5 1 3 6
M  V30 6 2 4 7
M  V30 7 1 5 8
M  V30 8 2 6 9
M  V30 9 2 8 10
M  V30 10 1 8 11
M  V30 11 2 11 12
M  V30 12 1 11 13
M  V30 13 1 12 14
M  V30 14 2 13 15
M  V30 15 2 14 16
M  V30 16 1 7 9
M  V30 17 1 15 16
M  V30 END BOND
M  V30 END CTAB
M  END
>  <Molecule Name>
Benzoic acid, 2-chlorophenyl ester

>  <Activity Label>
0

>  <SMILES>
O=C(c1ccccc1)Oc(cccc1)c1Cl

>  <Molecular Formula>
C13H9O2Cl

>  <InChIKey>
CVTWIWQGBUQAIQ-UHFFFAOYSA-N

>  <Repellency>
Inactive

>  <Reference DOI>
10.3390/toxics11100837

>  <Target Organism>
Not applied

$$$$
Compound 729
Actelion Java MolfileCreator 2.0

  0  0  0  0  0  0              0 V3000
M  V30 BEGIN CTAB
M  V30 COUNTS 16 17 0 0 0
M  V30 BEGIN ATOM
M  V30 1 O 0.0 0.0 0.0 0
M  V30 2 C 0.0 1.5005 0.0 0
M  V30 3 C 1.2997 2.2449 0.0 0
M  V30 4 C -1.2997 2.2449 0.0 0
M  V30 5 C 2.5994 1.5005 0.0 0
M  V30 6 C -2.5994 1.5005 0.0 0
M  V30 7 C 2.5994 0.0 0.0 0
M  V30 8 C 3.8991 2.2449 0.0 0
M  V30 9 C -3.8991 2.2567 0.0 0
M  V30 10 C -2.5994 0.0 0.0 0
M  V30 11 C 3.8991 -0.7561 0.0 0
M  V30 12 C 5.1988 1.4887 0.0 0
M  V30 13 C -5.1988 1.5123 0.0 0
M  V30 14 C -3.8991 -0.7443 0.0 0
M  V30 15 C 5.1988 -0.0118 0.0 0
M  V30 16 C -5.1988 0.0118 0.0 0
M  V30 END ATOM
M  V30 BEGIN BOND
M  V30 1 2 1 2
M  V30 2 1 2 3
M  V30 3 1 2 4
M  V30 4 1 3 5
M  V30 5 1 4 6
M  V30 6 2 5 7
M  V30 7 1 5 8
M  V30 8 2 6 9
M  V30 9 1 6 10
M  V30 10 1 7 11
M  V30 11 2 8 12
M  V30 12 1 9 13
M  V30 13 2 10 14
M  V30 14 2 11 15
M  V30 15 2 13 16
M  V30 16 1 12 15
M  V30 17 1 14 16
M  V30 END BOND
M  V30 END CTAB
M  END
>  <Molecule Name>
Dibenzyl ketone

>  <Activity Label>
0

>  <SMILES>
O=C(Cc1ccccc1)Cc1ccccc1

>  <Molecular Formula>
C15H14O

>  <InChIKey>
YFKBXYGUSOXJGS-UHFFFAOYSA-N

>  <Repellency>
Inactive

>  <Reference DOI>
10.3390/toxics11100837

>  <Target Organism>
Not applied

$$$$
Compound 730
Actelion Java MolfileCreator 2.0

  0  0  0  0  0  0              0 V3000
M  V30 BEGIN CTAB
M  V30 COUNTS 16 17 0 0 0
M  V30 BEGIN ATOM
M  V30 1 O 0.0 0.0 0.0 0
M  V30 2 C 0.0 1.5005 0.0 0
M  V30 3 C 1.2997 2.2449 0.0 0
M  V30 4 C -1.2997 2.2449 0.0 0
M  V30 5 C 2.5994 1.5005 0.0 0
M  V30 6 C -2.5994 1.5005 0.0 0
M  V30 7 C 2.5994 0.0 0.0 0
M  V30 8 C 3.8991 2.2449 0.0 0
M  V30 9 C -3.8991 2.2567 0.0 0
M  V30 10 C -2.5994 0.0 0.0 0
M  V30 11 C 3.8991 -0.7561 0.0 0
M  V30 12 C 5.1988 1.4887 0.0 0
M  V30 13 C -5.1988 1.5123 0.0 0
M  V30 14 C -3.8991 -0.7443 0.0 0
M  V30 15 C 5.1988 -0.0118 0.0 0
M  V30 16 C -5.1988 0.0118 0.0 0
M  V30 END ATOM
M  V30 BEGIN BOND
M  V30 1 1 1 2
M  V30 2 1 2 3
M  V30 3 1 2 4
M  V30 4 1 3 5
M  V30 5 1 4 6
M  V30 6 2 5 7
M  V30 7 1 5 8
M  V30 8 2 6 9
M  V30 9 1 6 10
M  V30 10 1 7 11
M  V30 11 2 8 12
M  V30 12 1 9 13
M  V30 13 2 10 14
M  V30 14 2 11 15
M  V30 15 2 13 16
M  V30 16 1 12 15
M  V30 17 1 14 16
M  V30 END BOND
M  V30 END CTAB
M  END
>  <Molecule Name>
Dibenzyl carbinol

>  <Activity Label>
0

>  <SMILES>
OC(Cc1ccccc1)Cc1ccccc1

>  <Molecular Formula>
C15H16O

>  <InChIKey>
CDLPUTDLLBHWRA-UHFFFAOYSA-N

>  <Repellency>
Inactive

>  <Reference DOI>
10.3390/toxics11100837

>  <Target Organism>
Not applied

$$$$
Compound 731
Actelion Java MolfileCreator 2.0

  0  0  0  0  0  0              0 V3000
M  V30 BEGIN CTAB
M  V30 COUNTS 16 17 0 0 0
M  V30 BEGIN ATOM
M  V30 1 O 0.0 0.0 0.0 0
M  V30 2 C -1.298 0.7552 0.0 0
M  V30 3 C -1.298 2.2538 0.0 0
M  V30 4 C -2.5961 0.0118 0.0 0
M  V30 5 C -2.5961 3.0091 0.0 0
M  V30 6 C 0.0 3.0091 0.0 0
M  V30 7 C -3.8941 0.7552 0.0 0
M  V30 8 C -3.8941 2.2656 0.0 0
M  V30 9 C 1.298 2.2538 0.0 0
M  V30 10 C -5.1922 3.0209 0.0 0
M  V30 11 C 2.5961 3.0091 0.0 0
M  V30 12 C 3.8941 2.2656 0.0 0
M  V30 13 C 2.5961 4.5077 0.0 0
M  V30 14 C 5.1922 3.0209 0.0 0
M  V30 15 C 3.8941 5.263 0.0 0
M  V30 16 C 5.1922 4.5195 0.0 0
M  V30 END ATOM
M  V30 BEGIN BOND
M  V30 1 1 1 2
M  V30 2 2 2 3
M  V30 3 1 2 4
M  V30 4 1 3 5
M  V30 5 1 3 6
M  V30 6 2 4 7
M  V30 7 2 5 8
M  V30 8 2 6 9 CFG=2
M  V30 9 1 8 10
M  V30 10 1 9 11
M  V30 11 2 11 12
M  V30 12 1 11 13
M  V30 13 1 12 14
M  V30 14 2 13 15
M  V30 15 2 14 16
M  V30 16 1 7 8
M  V30 17 1 15 16
M  V30 END BOND
M  V30 END CTAB
M  END
>  <Molecule Name>
Styryl p-cresol

>  <Activity Label>
0

>  <SMILES>
Cc(cc1)cc(C=Cc2ccccc2)c1O

>  <Molecular Formula>
C15H14O

>  <InChIKey>
DQXLZQKEKRNHCC-UHFFFAOYSA-N

>  <Repellency>
Inactive

>  <Reference DOI>
10.3390/toxics11100837

>  <Target Organism>
Not applied

$$$$
Compound 732
Actelion Java MolfileCreator 2.0

  0  0  0  0  0  0              0 V3000
M  V30 BEGIN CTAB
M  V30 COUNTS 16 17 0 0 0
M  V30 BEGIN ATOM
M  V30 1 O 0.0 0.0 0.0 0
M  V30 2 C 1.2981 -0.7553 0.0 0
M  V30 3 C -1.2981 -0.7553 0.0 0
M  V30 4 C 2.5963 0.0 0.0 0
M  V30 5 C 1.2981 -2.2541 0.0 0
M  V30 6 C -2.5963 0.0 0.0 0
M  V30 7 C 3.8945 -0.7435 0.0 0
M  V30 8 C 2.5963 -2.9976 0.0 0
M  V30 9 C -3.8945 -0.7553 0.0 0
M  V30 10 C 3.8945 -2.2423 0.0 0
M  V30 11 C 5.1927 0.0118 0.0 0
M  V30 12 C -5.1927 0.0 0.0 0
M  V30 13 C 5.1927 -2.9858 0.0 0
M  V30 14 C 6.4909 -0.7317 0.0 0
M  V30 15 C -6.4909 -0.7553 0.0 0
M  V30 16 C 6.4909 -2.2305 0.0 0
M  V30 END ATOM
M  V30 BEGIN BOND
M  V30 1 1 1 2
M  V30 2 1 1 3
M  V30 3 2 2 4
M  V30 4 1 2 5
M  V30 5 1 3 6
M  V30 6 1 4 7
M  V30 7 2 5 8
M  V30 8 1 6 9
M  V30 9 2 7 10
M  V30 10 1 7 11
M  V30 11 1 9 12
M  V30 12 1 10 13
M  V30 13 2 11 14
M  V30 14 1 12 15
M  V30 15 2 13 16
M  V30 16 1 8 10
M  V30 17 1 14 16
M  V30 END BOND
M  V30 END CTAB
M  END
>  <Molecule Name>
Amyl beta-naphthyl ether

>  <Activity Label>
0

>  <SMILES>
CCCCCOc1cc(cccc2)c2cc1

>  <Molecular Formula>
C15H18O

>  <InChIKey>
XMIYCZUIHNVBKA-UHFFFAOYSA-N

>  <Repellency>
Inactive

>  <Reference DOI>
10.3390/toxics11100837

>  <Target Organism>
Not applied

$$$$
Compound 733
Actelion Java MolfileCreator 2.0

  0  0  0  0  0  0              0 V3000
M  V30 BEGIN CTAB
M  V30 COUNTS 16 17 0 0 0
M  V30 BEGIN ATOM
M  V30 1 O 0.0 0.0 0.0 0
M  V30 2 C -1.2398 0.7194 0.0 0
M  V30 3 C -1.2398 2.1583 0.0 0
M  V30 4 C -2.4797 2.8777 0.0 0
M  V30 5 C 0.0 2.8777 0.0 0
M  V30 6 C -3.7196 2.1583 0.0 0
M  V30 7 C -4.9595 2.8777 0.0 0
M  V30 8 C -6.1994 2.1583 0.0 0 CFG=2
M  V30 9 C -7.5159 2.74 0.0 0
M  V30 10 C -6.3525 0.7347 0.0 0 CFG=1
M  V30 11 C -4.9902 1.3776 0.0 0
M  V30 12 C -7.822 4.1483 0.0 0
M  V30 13 C -8.4803 1.6685 0.0 0 CFG=2
M  V30 14 C -7.7608 0.4286 0.0 0
M  V30 15 C -7.5465 -0.8419 0.0 0
M  V30 16 C -8.8629 -0.2755 0.0 0
M  V30 END ATOM
M  V30 BEGIN BOND
M  V30 1 1 1 2
M  V30 2 1 2 3
M  V30 3 2 3 4
M  V30 4 1 3 5
M  V30 5 1 4 6
M  V30 6 1 6 7
M  V30 7 1 7 8
M  V30 8 1 8 9
M  V30 9 1 8 10
M  V30 10 1 8 11 CFG=3
M  V30 11 2 9 12
M  V30 12 1 9 13
M  V30 13 1 10 14 CFG=1
M  V30 14 1 10 15
M  V30 15 1 13 16 CFG=3
M  V30 16 1 13 14
M  V30 17 1 15 16
M  V30 END BOND
M  V30 BEGIN COLLECTION
M  V30 MDLV30/STERAC1 ATOMS=(3 8 10 13)
M  V30 END COLLECTION
M  V30 END CTAB
M  END
>  <Molecule Name>
Santalol

>  <Activity Label>
0

>  <SMILES>
C[C@](CC/C=C(/C)\CO)([C@H]1C[C@@H]2CC1)C2=C

>  <Molecular Formula>
C15H24O

>  <InChIKey>
OJYKYCDSGQGTRJ-WZUFQYTHSA-N

>  <Repellency>
Inactive

>  <Reference DOI>
10.3390/toxics11100837

>  <Target Organism>
Not applied

$$$$
Compound 734
Actelion Java MolfileCreator 2.0

  0  0  0  0  0  0              0 V3000
M  V30 BEGIN CTAB
M  V30 COUNTS 16 17 0 0 0
M  V30 BEGIN ATOM
M  V30 1 O 0.0 0.0 0.0 0
M  V30 2 C 1.2992 -0.7559 0.0 0
M  V30 3 C -1.2992 -0.7559 0.0 0
M  V30 4 C 2.5985 -0.0118 0.0 0
M  V30 5 C 1.2992 -2.2559 0.0 0
M  V30 6 C -2.5985 -0.0118 0.0 0
M  V30 7 C 3.8977 -0.7677 0.0 0
M  V30 8 C 2.5985 -3.0 0.0 0
M  V30 9 C -3.8977 -0.7677 0.0 0
M  V30 10 C 3.8977 -2.2677 0.0 0
M  V30 11 C 5.197 -3.0237 0.0 0
M  V30 12 C 5.197 -4.5237 0.0 0
M  V30 13 C 6.4962 -2.2795 0.0 0
M  V30 14 C 6.4962 -5.2796 0.0 0
M  V30 15 C 7.7955 -3.0355 0.0 0
M  V30 16 C 7.7955 -4.5355 0.0 0
M  V30 END ATOM
M  V30 BEGIN BOND
M  V30 1 1 1 2
M  V30 2 1 1 3
M  V30 3 2 2 4
M  V30 4 1 2 5
M  V30 5 1 3 6
M  V30 6 1 4 7
M  V30 7 2 5 8
M  V30 8 2 6 9
M  V30 9 2 7 10
M  V30 10 1 10 11
M  V30 11 1 11 12
M  V30 12 1 11 13
M  V30 13 1 12 14
M  V30 14 1 13 15
M  V30 15 1 14 16
M  V30 16 1 8 10
M  V30 17 1 15 16
M  V30 END BOND
M  V30 END CTAB
M  END
>  <Molecule Name>
Allyl 4-cyclohexylphenyl ether

>  <Activity Label>
0

>  <SMILES>
C=CCOc1ccc(C2CCCCC2)cc1

>  <Molecular Formula>
C15H20O

>  <InChIKey>
NTWGOCGBZYQYJD-UHFFFAOYSA-N

>  <Repellency>
Inactive

>  <Reference DOI>
10.3390/toxics11100837

>  <Target Organism>
Not applied

$$$$
Compound 735
Actelion Java MolfileCreator 2.0

  0  0  0  0  0  0              0 V3000
M  V30 BEGIN CTAB
M  V30 COUNTS 16 17 0 0 0
M  V30 BEGIN ATOM
M  V30 1 O 0.0 0.0 0.0 0
M  V30 2 C -1.2998 -0.7444 0.0 0
M  V30 3 C 1.2998 -0.7444 0.0 0
M  V30 4 C -2.5997 0.0118 0.0 0
M  V30 5 C -1.2998 -2.2452 0.0 0
M  V30 6 C 2.5997 0.0 0.0 0
M  V30 7 C -3.8995 -0.7326 0.0 0
M  V30 8 C -2.5997 -2.9896 0.0 0
M  V30 9 C 3.8995 -0.7444 0.0 0
M  V30 10 C -3.8995 -2.2333 0.0 0
M  V30 11 C -5.1994 0.0236 0.0 0
M  V30 12 C 5.1994 0.0 0.0 0
M  V30 13 C 3.8995 -2.2452 0.0 0
M  V30 14 C -5.1994 -2.9778 0.0 0
M  V30 15 C -6.4992 -0.7208 0.0 0
M  V30 16 C -6.4992 -2.2215 0.0 0
M  V30 END ATOM
M  V30 BEGIN BOND
M  V30 1 1 1 2
M  V30 2 1 1 3
M  V30 3 2 2 4
M  V30 4 1 2 5
M  V30 5 1 3 6
M  V30 6 1 4 7
M  V30 7 2 5 8
M  V30 8 1 6 9
M  V30 9 2 7 10
M  V30 10 1 7 11
M  V30 11 1 9 12
M  V30 12 1 9 13
M  V30 13 1 10 14
M  V30 14 2 11 15
M  V30 15 2 14 16
M  V30 16 1 8 10
M  V30 17 1 15 16
M  V30 END BOND
M  V30 END CTAB
M  END
>  <Molecule Name>
beta-Naphthyl iso-amyl ether

>  <Activity Label>
0

>  <SMILES>
CC(C)CCOc1cc(cccc2)c2cc1

>  <Molecular Formula>
C15H18O

>  <InChIKey>
MVTVERJNJHEXOT-UHFFFAOYSA-N

>  <Repellency>
Inactive

>  <Reference DOI>
10.3390/toxics11100837

>  <Target Organism>
Not applied

$$$$
Compound 736
Actelion Java MolfileCreator 2.0

  0  0  0  0  0  0              0 V3000
M  V30 BEGIN CTAB
M  V30 COUNTS 16 17 0 0 0
M  V30 BEGIN ATOM
M  V30 1 O 0.0 0.0 0.0 0
M  V30 2 C 1.3003 0.7447 0.0 0
M  V30 3 C -1.3003 0.7447 0.0 0
M  V30 4 C 1.3003 2.246 0.0 0
M  V30 5 C 2.6006 0.0 0.0 0
M  V30 6 C -2.6006 0.0 0.0 0
M  V30 7 C 2.6006 2.9907 0.0 0
M  V30 8 C 0.0 2.9907 0.0 0
M  V30 9 C 3.9009 0.7447 0.0 0
M  V30 10 C -3.9009 0.7565 0.0 0
M  V30 11 C -2.6006 -1.5012 0.0 0
M  V30 12 C 3.9009 2.246 0.0 0
M  V30 13 C 0.0 4.492 0.0 0
M  V30 14 C -5.2012 0.0118 0.0 0
M  V30 15 C -3.9009 -2.246 0.0 0
M  V30 16 C -5.2012 -1.4894 0.0 0
M  V30 END ATOM
M  V30 BEGIN BOND
M  V30 1 1 1 2
M  V30 2 1 1 3
M  V30 3 2 2 4
M  V30 4 1 2 5
M  V30 5 1 3 6
M  V30 6 1 4 7
M  V30 7 1 4 8
M  V30 8 2 5 9
M  V30 9 2 6 10
M  V30 10 1 6 11
M  V30 11 2 7 12
M  V30 12 1 8 13
M  V30 13 1 10 14
M  V30 14 2 11 15
M  V30 15 2 14 16
M  V30 16 1 9 12
M  V30 17 1 15 16
M  V30 END BOND
M  V30 END CTAB
M  END
>  <Molecule Name>
Benzyl 2-ethylphenyl ether

>  <Activity Label>
0

>  <SMILES>
CCc(cccc1)c1OCc1ccccc1

>  <Molecular Formula>
C15H16O

>  <InChIKey>
KUUCITDLXFDQJX-UHFFFAOYSA-N

>  <Repellency>
Inactive

>  <Reference DOI>
10.3390/toxics11100837

>  <Target Organism>
Not applied

$$$$
Compound 737
Actelion Java MolfileCreator 2.0

  0  0  0  0  0  0              0 V3000
M  V30 BEGIN CTAB
M  V30 COUNTS 16 17 0 0 0
M  V30 BEGIN ATOM
M  V30 1 Cl 0.0 0.0 0.0 0
M  V30 2 C 1.2997 0.7443 0.0 0
M  V30 3 C 2.5994 0.0 0.0 0
M  V30 4 O 3.8991 0.7443 0.0 0
M  V30 5 C 5.1988 0.0 0.0 0
M  V30 6 C 6.4985 0.7443 0.0 0
M  V30 7 C 5.1988 -1.5005 0.0 0
M  V30 8 C 7.7983 -0.0118 0.0 0
M  V30 9 C 6.4985 2.2449 0.0 0
M  V30 10 C 6.4985 -2.2567 0.0 0
M  V30 11 C 7.7983 -1.5123 0.0 0
M  V30 12 C 7.7983 2.9893 0.0 0
M  V30 13 C 5.1988 3.0011 0.0 0
M  V30 14 C 7.7983 4.4899 0.0 0
M  V30 15 C 5.1988 4.5017 0.0 0
M  V30 16 C 6.4985 5.2461 0.0 0
M  V30 END ATOM
M  V30 BEGIN BOND
M  V30 1 1 1 2
M  V30 2 1 2 3
M  V30 3 1 3 4
M  V30 4 1 4 5
M  V30 5 2 5 6
M  V30 6 1 5 7
M  V30 7 1 6 8
M  V30 8 1 6 9
M  V30 9 2 7 10
M  V30 10 2 8 11
M  V30 11 1 9 12
M  V30 12 1 9 13
M  V30 13 1 12 14
M  V30 14 1 13 15
M  V30 15 1 14 16
M  V30 16 1 10 11
M  V30 17 1 15 16
M  V30 END BOND
M  V30 END CTAB
M  END
>  <Molecule Name>
2-Chloroethyl 2-cyclohexylphenyl ether

>  <Activity Label>
0

>  <SMILES>
ClCCOc1c(C2CCCCC2)cccc1

>  <Molecular Formula>
C14H19OCl

>  <InChIKey>
RAGGEKKJJZFYTC-UHFFFAOYSA-N

>  <Repellency>
Inactive

>  <Reference DOI>
10.3390/toxics11100837

>  <Target Organism>
Not applied

$$$$
Compound 738
Actelion Java MolfileCreator 2.0

  0  0  0  0  0  0              0 V3000
M  V30 BEGIN CTAB
M  V30 COUNTS 16 17 0 0 0
M  V30 BEGIN ATOM
M  V30 1 O 0.0 0.0 0.0 0
M  V30 2 C 0.6101 1.3727 0.0 0
M  V30 3 O 2.0767 1.6895 0.0 0
M  V30 4 C -0.1407 2.6751 0.0 0
M  V30 5 C 2.2292 3.1796 0.0 0
M  V30 6 O 0.8565 3.7897 0.0 0
M  V30 7 C -1.6308 2.8276 0.0 0
M  V30 8 C 3.5316 3.9305 0.0 0
M  V30 9 C 3.4847 2.3583 0.0 0
M  V30 10 C -2.241 4.2004 0.0 0
M  V30 11 C -2.5108 1.6191 0.0 0
M  V30 12 C 4.8339 3.1796 0.0 0
M  V30 13 C -3.731 4.3529 0.0 0
M  V30 14 C -4.0009 1.7716 0.0 0
M  V30 15 C 6.1363 3.9305 0.0 0
M  V30 16 C -4.611 3.1444 0.0 0
M  V30 END ATOM
M  V30 BEGIN BOND
M  V30 1 2 1 2
M  V30 2 1 2 3
M  V30 3 1 2 4
M  V30 4 1 3 5
M  V30 5 1 4 6
M  V30 6 1 4 7
M  V30 7 1 5 8
M  V30 8 1 5 9
M  V30 9 2 7 10
M  V30 10 1 7 11
M  V30 11 1 8 12
M  V30 12 1 10 13
M  V30 13 2 11 14
M  V30 14 1 12 15
M  V30 15 2 13 16
M  V30 16 1 5 6
M  V30 17 1 14 16
M  V30 END BOND
M  V30 END CTAB
M  END
>  <Molecule Name>
2-Methyl-5-Phenyl-2-propyl-1,3-dioxolan-4-one

>  <Activity Label>
0

>  <SMILES>
CCCC(C)(OC1c2ccccc2)OC1=O

>  <Molecular Formula>
C13H16O3

>  <InChIKey>
ORTRRAQKJPYUNB-UHFFFAOYSA-N

>  <Repellency>
Inactive

>  <Reference DOI>
10.3390/toxics11100837

>  <Target Organism>
Not applied

$$$$
Compound 739
Actelion Java MolfileCreator 2.0

  0  0  0  0  0  0              0 V3000
M  V30 BEGIN CTAB
M  V30 COUNTS 16 17 0 0 0
M  V30 BEGIN ATOM
M  V30 1 O 0.0 0.0 0.0 0
M  V30 2 C -1.2743 0.7669 0.0 0
M  V30 3 O -2.5723 0.0235 0.0 0
M  V30 4 C -1.2743 2.2655 0.0 0
M  V30 5 C -3.8703 0.7669 0.0 0
M  V30 6 O -2.7257 1.8761 0.0 0
M  V30 7 C 0.1769 1.8761 0.0 0
M  V30 8 C -2.3363 3.3275 0.0 0
M  V30 9 C -5.1683 0.0117 0.0 0
M  V30 10 C 1.2389 2.9381 0.0 0
M  V30 11 C 0.5781 0.4365 0.0 0
M  V30 12 C 0.8495 4.3895 0.0 0
M  V30 13 C 2.6903 2.5487 0.0 0
M  V30 14 C 1.9115 5.4514 0.0 0
M  V30 15 C 3.7523 3.6107 0.0 0
M  V30 16 C 3.3629 5.0621 0.0 0
M  V30 END ATOM
M  V30 BEGIN BOND
M  V30 1 2 1 2
M  V30 2 1 2 3
M  V30 3 1 2 4
M  V30 4 1 3 5
M  V30 5 1 4 6
M  V30 6 1 4 7
M  V30 7 1 4 8
M  V30 8 1 5 9
M  V30 9 1 7 10
M  V30 10 1 7 11
M  V30 11 2 10 12
M  V30 12 1 10 13
M  V30 13 1 12 14
M  V30 14 2 13 15
M  V30 15 2 14 16
M  V30 16 1 6 8
M  V30 17 1 15 16
M  V30 END BOND
M  V30 END CTAB
M  END
>  <Molecule Name>
beta-Phenyl-beta-ethylglycidic acid, ethyl ester

>  <Activity Label>
0

>  <SMILES>
CCOC(C1(C(C)c2ccccc2)OC1)=O

>  <Molecular Formula>
C13H16O3

>  <InChIKey>
JDLFNMZYCHACOD-UHFFFAOYSA-N

>  <Repellency>
Inactive

>  <Reference DOI>
10.3390/toxics11100837

>  <Target Organism>
Not applied

$$$$
Compound 740
Actelion Java MolfileCreator 2.0

  0  0  0  0  0  0              0 V3000
M  V30 BEGIN CTAB
M  V30 COUNTS 16 17 0 0 0
M  V30 BEGIN ATOM
M  V30 1 S 0.0 0.0 0.0 0
M  V30 2 O -0.7442 -1.2995 0.0 0
M  V30 3 O 0.7561 -1.2995 0.0 0
M  V30 4 O -1.2995 0.7442 0.0 0
M  V30 5 C 1.2995 0.7442 0.0 0
M  V30 6 C -2.5991 0.0 0.0 0
M  V30 7 C 2.5991 0.0 0.0 0
M  V30 8 C 1.2995 2.2446 0.0 0
M  V30 9 C -3.8986 0.7561 0.0 0
M  V30 10 C -2.5991 -1.5003 0.0 0
M  V30 11 C 3.8986 0.7561 0.0 0
M  V30 12 C 2.5991 3.0007 0.0 0
M  V30 13 C -5.1982 0.0118 0.0 0
M  V30 14 C -3.8986 -2.2446 0.0 0
M  V30 15 C 3.8986 2.2565 0.0 0
M  V30 16 C -5.1982 -1.4885 0.0 0
M  V30 END ATOM
M  V30 BEGIN BOND
M  V30 1 2 1 2
M  V30 2 2 1 3
M  V30 3 1 1 4
M  V30 4 1 1 5
M  V30 5 1 4 6
M  V30 6 2 5 7
M  V30 7 1 5 8
M  V30 8 2 6 9
M  V30 9 1 6 10
M  V30 10 1 7 11
M  V30 11 2 8 12
M  V30 12 1 9 13
M  V30 13 2 10 14
M  V30 14 2 11 15
M  V30 15 2 13 16
M  V30 16 1 12 15
M  V30 17 1 14 16
M  V30 END BOND
M  V30 END CTAB
M  END
>  <Molecule Name>
Benzenesulfonic acid, phenyl ester

>  <Activity Label>
0

>  <SMILES>
O=S(c1ccccc1)(Oc1ccccc1)=O

>  <Molecular Formula>
C12H10O3S

>  <InChIKey>
CGEXUOTXYSGBLV-UHFFFAOYSA-N

>  <Repellency>
Inactive

>  <Reference DOI>
10.3390/toxics11100837

>  <Target Organism>
Not applied

$$$$
Compound 741
Actelion Java MolfileCreator 2.0

  0  0  0  0  0  0              0 V3000
M  V30 BEGIN CTAB
M  V30 COUNTS 16 17 0 0 0
M  V30 BEGIN ATOM
M  V30 1 S 0.0 0.0 0.0 0
M  V30 2 C 0.4603 -1.4281 0.0 0
M  V30 3 C 1.2156 0.8851 0.0 0
M  V30 4 C 1.9592 -1.4281 0.0 0
M  V30 5 C -0.2832 -2.7264 0.0 0
M  V30 6 N 2.4313 0.0 0.0 0
M  V30 7 C 1.2156 2.3841 0.0 0 CFG=2
M  V30 8 C 2.7146 -2.7264 0.0 0
M  V30 9 C 0.4603 -4.0247 0.0 0
M  V30 10 C -0.0826 3.1277 0.0 0
M  V30 11 C 2.5139 3.1277 0.0 0
M  V30 12 C 1.9592 -4.0247 0.0 0
M  V30 13 C -1.3809 2.3723 0.0 0
M  V30 14 C 3.8122 2.3723 0.0 0
M  V30 15 C -2.6792 3.1159 0.0 0
M  V30 16 C -3.9774 2.3605 0.0 0
M  V30 END ATOM
M  V30 BEGIN BOND
M  V30 1 1 1 2
M  V30 2 1 1 3
M  V30 3 2 2 4
M  V30 4 1 2 5
M  V30 5 2 3 6
M  V30 6 1 3 7
M  V30 7 1 4 8
M  V30 8 2 5 9
M  V30 9 1 7 10 CFG=3
M  V30 10 1 7 11
M  V30 11 2 8 12
M  V30 12 1 10 13
M  V30 13 1 11 14
M  V30 14 1 13 15
M  V30 15 1 15 16
M  V30 16 1 4 6
M  V30 17 1 9 12
M  V30 END BOND
M  V30 BEGIN COLLECTION
M  V30 MDLV30/STERAC1 ATOMS=(1 7)
M  V30 END COLLECTION
M  V30 END CTAB
M  END
>  <Molecule Name>
2-(1-Ethylamyl)benzothiazole

>  <Activity Label>
0

>  <SMILES>
CCCCC(CC)c1nc(cccc2)c2[s]1

>  <Molecular Formula>
C14H19NS

>  <InChIKey>
AUTVRULOXQHUKS-UHFFFAOYSA-N

>  <Repellency>
Inactive

>  <Reference DOI>
10.3390/toxics11100837

>  <Target Organism>
Not applied

$$$$
Compound 742
Actelion Java MolfileCreator 2.0

  0  0  0  0  0  0              0 V3000
M  V30 BEGIN CTAB
M  V30 COUNTS 16 17 0 0 0
M  V30 BEGIN ATOM
M  V30 1 S 0.0 0.0 0.0 0
M  V30 2 C 0.0 -1.5009 0.0 0
M  V30 3 C 1.3 0.7445 0.0 0
M  V30 4 N 0.0 -3.0018 0.0 0
M  V30 5 C 2.6 0.0 0.0 0
M  V30 6 C 1.3 2.2455 0.0 0
M  V30 7 C 2.6 -1.5009 0.0 0
M  V30 8 C 3.9001 0.7445 0.0 0
M  V30 9 C 2.6 2.99 0.0 0
M  V30 10 C 0.0 2.99 0.0 0
M  V30 11 C 3.9001 -2.2573 0.0 0
M  V30 12 C 5.2001 -0.0118 0.0 0
M  V30 13 C 2.6 4.491 0.0 0
M  V30 14 C 0.0 4.491 0.0 0
M  V30 15 C 5.2001 -1.5127 0.0 0
M  V30 16 C 1.3 5.2355 0.0 0
M  V30 END ATOM
M  V30 BEGIN BOND
M  V30 1 1 1 2
M  V30 2 1 1 3
M  V30 3 3 2 4
M  V30 4 1 3 5
M  V30 5 1 3 6
M  V30 6 2 5 7
M  V30 7 1 5 8
M  V30 8 2 6 9
M  V30 9 1 6 10
M  V30 10 1 7 11
M  V30 11 2 8 12
M  V30 12 1 9 13
M  V30 13 2 10 14
M  V30 14 2 11 15
M  V30 15 2 13 16
M  V30 16 1 12 15
M  V30 17 1 14 16
M  V30 END BOND
M  V30 END CTAB
M  END
>  <Molecule Name>
Thiocyanic acid, benzhydryl ester

>  <Activity Label>
0

>  <SMILES>
N#CSC(c1ccccc1)c1ccccc1

>  <Molecular Formula>
C14H11NS

>  <InChIKey>
SBWAWGPWUHYFRI-UHFFFAOYSA-N

>  <Repellency>
Inactive

>  <Reference DOI>
10.3390/toxics11100837

>  <Target Organism>
Not applied

$$$$
Compound 743
Actelion Java MolfileCreator 2.0

  0  0  0  0  0  0              0 V3000
M  V30 BEGIN CTAB
M  V30 COUNTS 16 17 0 0 0
M  V30 BEGIN ATOM
M  V30 1 O 0.0 0.0 0.0 0
M  V30 2 C -1.1105 1.0042 0.0 0
M  V30 3 N -0.9569 2.4928 0.0 0
M  V30 4 C -2.5755 0.697 0.0 0
M  V30 5 C -2.3274 3.1072 0.0 0
M  V30 6 C 0.3426 3.249 0.0 0
M  V30 7 C -3.3198 1.9966 0.0 0
M  V30 8 C -3.3317 -0.6025 0.0 0
M  V30 9 O -2.6346 4.5722 0.0 0
M  V30 10 C 1.6422 2.4928 0.0 0
M  V30 11 C -4.8203 1.9966 0.0 0
M  V30 12 C -4.8321 -0.6025 0.0 0
M  V30 13 C 2.9418 3.249 0.0 0
M  V30 14 C -5.5764 0.697 0.0 0
M  V30 15 C 4.2414 2.4928 0.0 0
M  V30 16 C 5.541 3.249 0.0 0
M  V30 END ATOM
M  V30 BEGIN BOND
M  V30 1 2 1 2
M  V30 2 1 2 3
M  V30 3 1 2 4
M  V30 4 1 3 5
M  V30 5 1 3 6
M  V30 6 1 4 7
M  V30 7 1 4 8
M  V30 8 2 5 9
M  V30 9 1 6 10
M  V30 10 1 7 11
M  V30 11 1 8 12
M  V30 12 1 10 13
M  V30 13 1 11 14
M  V30 14 1 13 15
M  V30 15 1 15 16
M  V30 16 1 5 7
M  V30 17 2 12 14
M  V30 END BOND
M  V30 END CTAB
M  END
>  <Molecule Name>
N-Amyl-1,2,3,6-tetrahydrophthalimide

>  <Activity Label>
0

>  <SMILES>
CCCCCN(C(C1C2CC=CC1)=O)C2=O

>  <Molecular Formula>
C13H19NO2

>  <InChIKey>
UUBGMAFWYSHEGS-UHFFFAOYSA-N

>  <Repellency>
Inactive

>  <Reference DOI>
10.3390/toxics11100837

>  <Target Organism>
Not applied

$$$$
Compound 744
Actelion Java MolfileCreator 2.0

  0  0  0  0  0  0              0 V3000
M  V30 BEGIN CTAB
M  V30 COUNTS 16 17 0 0 0
M  V30 BEGIN ATOM
M  V30 1 O 0.0 0.0 0.0 0
M  V30 2 C 0.0 1.5004 0.0 0
M  V30 3 O -1.2995 2.2447 0.0 0
M  V30 4 C 1.2995 2.2447 0.0 0
M  V30 5 C -2.5991 1.5004 0.0 0
M  V30 6 C 2.5991 1.5004 0.0 0
M  V30 7 C 1.2995 3.7451 0.0 0
M  V30 8 C -3.8987 2.2565 0.0 0
M  V30 9 C -2.5991 0.0 0.0 0
M  V30 10 N 2.5991 0.0 0.0 0
M  V30 11 C 3.8987 2.2565 0.0 0
M  V30 12 C 2.5991 4.5012 0.0 0
M  V30 13 C -5.1982 1.5122 0.0 0
M  V30 14 C -3.8987 -0.7443 0.0 0
M  V30 15 C 3.8987 3.7569 0.0 0
M  V30 16 C -5.1982 0.0118 0.0 0
M  V30 END ATOM
M  V30 BEGIN BOND
M  V30 1 2 1 2
M  V30 2 1 2 3
M  V30 3 1 2 4
M  V30 4 1 3 5
M  V30 5 2 4 6
M  V30 6 1 4 7
M  V30 7 1 5 8
M  V30 8 1 5 9
M  V30 9 1 6 10
M  V30 10 1 6 11
M  V30 11 2 7 12
M  V30 12 1 8 13
M  V30 13 1 9 14
M  V30 14 2 11 15
M  V30 15 1 13 16
M  V30 16 1 12 15
M  V30 17 1 14 16
M  V30 END BOND
M  V30 END CTAB
M  END
>  <Molecule Name>
Anthranilic acid, cyclohexyl ester

>  <Activity Label>
0

>  <SMILES>
Nc(cccc1)c1C(OC1CCCCC1)=O

>  <Molecular Formula>
C13H17NO2

>  <InChIKey>
KFEZETDKFSMLMG-UHFFFAOYSA-N

>  <Repellency>
Inactive

>  <Reference DOI>
10.3390/toxics11100837

>  <Target Organism>
Not applied

$$$$
Compound 745
Actelion Java MolfileCreator 2.0

  0  0  0  0  0  0              0 V3000
M  V30 BEGIN CTAB
M  V30 COUNTS 16 17 0 0 0
M  V30 BEGIN ATOM
M  V30 1 O 0.0 0.0 0.0 0
M  V30 2 C -1.1112 1.0048 0.0 0
M  V30 3 N -0.9575 2.4943 0.0 0
M  V30 4 C -2.577 0.6974 0.0 0
M  V30 5 C -2.3288 3.109 0.0 0
M  V30 6 C 0.3428 3.239 0.0 0
M  V30 7 C -3.3218 1.9978 0.0 0
M  V30 8 C -3.3336 -0.6028 0.0 0
M  V30 9 O -2.6361 4.5749 0.0 0
M  V30 10 C 1.6431 2.4825 0.0 0
M  V30 11 C -4.8231 1.9978 0.0 0
M  V30 12 C -4.8349 -0.6028 0.0 0
M  V30 13 O 2.9435 3.2272 0.0 0
M  V30 14 C 1.6431 0.9811 0.0 0
M  V30 15 C -5.5797 0.6974 0.0 0
M  V30 16 C -5.5915 -1.9032 0.0 0
M  V30 END ATOM
M  V30 BEGIN BOND
M  V30 1 2 1 2
M  V30 2 1 2 3
M  V30 3 1 2 4
M  V30 4 1 3 5
M  V30 5 1 3 6
M  V30 6 1 4 7
M  V30 7 1 4 8
M  V30 8 2 5 9
M  V30 9 1 6 10
M  V30 10 1 7 11
M  V30 11 1 8 12
M  V30 12 1 10 13
M  V30 13 1 10 14
M  V30 14 1 11 15
M  V30 15 1 12 16
M  V30 16 1 5 7
M  V30 17 2 12 15
M  V30 END BOND
M  V30 END CTAB
M  END
>  <Molecule Name>
N-beta-Hydroxypropyl-4-methyl-1,2,3,6-tetrahydrophthalimide

>  <Activity Label>
0

>  <SMILES>
CC(CN(C(C1C2CC(C)=CC1)=O)C2=O)O

>  <Molecular Formula>
C12H17NO3

>  <InChIKey>
NJABBUYFSTVCNF-UHFFFAOYSA-N

>  <Repellency>
Inactive

>  <Reference DOI>
10.3390/toxics11100837

>  <Target Organism>
Not applied

$$$$
Compound 746
Actelion Java MolfileCreator 2.0

  0  0  0  0  0  0              0 V3000
M  V30 BEGIN CTAB
M  V30 COUNTS 16 15 0 0 0
M  V30 BEGIN ATOM
M  V30 1 C 0.0 0.0 0.0 0
M  V30 2 C -1.3004 0.7475 0.0 0
M  V30 3 C 1.3004 0.7475 0.0 0
M  V30 4 C -2.6009 0.0 0.0 0
M  V30 5 C 2.6009 0.0 0.0 0
M  V30 6 C -3.9014 0.7475 0.0 0
M  V30 7 C 3.9014 0.7475 0.0 0
M  V30 8 C -5.2018 0.0 0.0 0
M  V30 9 C 5.2018 0.0 0.0 0
M  V30 10 C -6.5023 0.7475 0.0 0
M  V30 11 C 6.5023 0.7475 0.0 0
M  V30 12 C -7.8028 0.0 0.0 0
M  V30 13 C 7.8028 0.0 0.0 0
M  V30 14 C -9.1032 0.7475 0.0 0
M  V30 15 C 9.1032 0.7475 0.0 0
M  V30 16 C -10.4037 0.0 0.0 0
M  V30 END ATOM
M  V30 BEGIN BOND
M  V30 1 1 1 2
M  V30 2 1 1 3
M  V30 3 1 2 4
M  V30 4 1 3 5
M  V30 5 1 4 6
M  V30 6 1 5 7
M  V30 7 1 6 8
M  V30 8 1 7 9
M  V30 9 1 8 10
M  V30 10 1 9 11
M  V30 11 1 10 12
M  V30 12 1 11 13
M  V30 13 1 12 14
M  V30 14 1 13 15
M  V30 15 1 14 16
M  V30 END BOND
M  V30 END CTAB
M  END
>  <Molecule Name>
Hexadecane

>  <Activity Label>
0

>  <SMILES>
CCCCCCCCCCCCCCCC

>  <Molecular Formula>
C16H34

>  <InChIKey>
DCAYPVUWAIABOU-UHFFFAOYSA-N

>  <Repellency>
Inactive

>  <Reference DOI>
10.3390/toxics11100837

>  <Target Organism>
Not applied

$$$$
Compound 747
Actelion Java MolfileCreator 2.0

  0  0  0  0  0  0              0 V3000
M  V30 BEGIN CTAB
M  V30 COUNTS 16 15 0 0 0
M  V30 BEGIN ATOM
M  V30 1 C 0.0 0.0 0.0 0
M  V30 2 C 1.3004 0.7475 0.0 0
M  V30 3 C -1.3004 0.7475 0.0 0
M  V30 4 C -2.6009 0.0 0.0 0
M  V30 5 C -3.9014 0.7475 0.0 0
M  V30 6 C -5.2018 0.0 0.0 0
M  V30 7 C -6.5023 0.7475 0.0 0
M  V30 8 C -7.8028 0.0 0.0 0
M  V30 9 C -9.1032 0.7475 0.0 0
M  V30 10 C -10.4037 0.0 0.0 0
M  V30 11 C -11.7042 0.7475 0.0 0
M  V30 12 C -13.0047 0.0 0.0 0
M  V30 13 C -14.3051 0.7475 0.0 0
M  V30 14 C -15.6056 0.0 0.0 0
M  V30 15 C -16.9061 0.7475 0.0 0
M  V30 16 C -18.2065 0.0 0.0 0
M  V30 END ATOM
M  V30 BEGIN BOND
M  V30 1 2 1 2
M  V30 2 1 1 3
M  V30 3 1 3 4
M  V30 4 1 4 5
M  V30 5 1 5 6
M  V30 6 1 6 7
M  V30 7 1 7 8
M  V30 8 1 8 9
M  V30 9 1 9 10
M  V30 10 1 10 11
M  V30 11 1 11 12
M  V30 12 1 12 13
M  V30 13 1 13 14
M  V30 14 1 14 15
M  V30 15 1 15 16
M  V30 END BOND
M  V30 END CTAB
M  END
>  <Molecule Name>
1-Hexadecene

>  <Activity Label>
0

>  <SMILES>
CCCCCCCCCCCCCCC=C

>  <Molecular Formula>
C16H32

>  <InChIKey>
GQEZCXVZFLOKMC-UHFFFAOYSA-N

>  <Repellency>
Inactive

>  <Reference DOI>
10.3390/toxics11100837

>  <Target Organism>
Not applied

$$$$
Compound 748
Actelion Java MolfileCreator 2.0

  0  0  0  0  0  0              0 V3000
M  V30 BEGIN CTAB
M  V30 COUNTS 16 15 0 0 0
M  V30 BEGIN ATOM
M  V30 1 O 0.0 0.0 0.0 0
M  V30 2 C 1.2994 0.7442 0.0 0
M  V30 3 O 2.5988 0.0 0.0 0
M  V30 4 C 1.2994 2.2444 0.0 0
M  V30 5 C 2.5988 -1.5002 0.0 0
M  V30 6 C 0.0 2.9887 0.0 0
M  V30 7 C 2.5988 2.9887 0.0 0
M  V30 8 C 3.8983 -2.2563 0.0 0
M  V30 9 O 0.0 4.4889 0.0 0
M  V30 10 O -1.2994 2.2326 0.0 0
M  V30 11 C 3.8983 2.2326 0.0 0
M  V30 12 C -2.5988 2.9769 0.0 0
M  V30 13 C 5.1977 2.9769 0.0 0
M  V30 14 C -3.8983 2.2208 0.0 0
M  V30 15 C 6.4972 2.2208 0.0 0
M  V30 16 C 7.7966 2.965 0.0 0
M  V30 END ATOM
M  V30 BEGIN BOND
M  V30 1 2 1 2
M  V30 2 1 2 3
M  V30 3 1 2 4
M  V30 4 1 3 5
M  V30 5 1 4 6
M  V30 6 1 4 7
M  V30 7 1 5 8
M  V30 8 2 6 9
M  V30 9 1 6 10
M  V30 10 1 7 11
M  V30 11 1 10 12
M  V30 12 1 11 13
M  V30 13 1 12 14
M  V30 14 1 13 15
M  V30 15 1 15 16
M  V30 END BOND
M  V30 END CTAB
M  END
>  <Molecule Name>
2-Pentylmalonic acid, diethyl ester

>  <Activity Label>
0

>  <SMILES>
CCCCCC(C(OCC)=O)C(OCC)=O

>  <Molecular Formula>
C12H22O4

>  <InChIKey>
OQFYXOBMUBGANU-UHFFFAOYSA-N

>  <Repellency>
Inactive

>  <Reference DOI>
10.3390/toxics11100837

>  <Target Organism>
Not applied

$$$$
Compound 749
Actelion Java MolfileCreator 2.0

  0  0  0  0  0  0              0 V3000
M  V30 BEGIN CTAB
M  V30 COUNTS 16 15 0 0 0
M  V30 BEGIN ATOM
M  V30 1 O 0.0 0.0 0.0 0
M  V30 2 C 0.0 -1.4992 0.0 0
M  V30 3 O 1.2985 -2.2548 0.0 0
M  V30 4 C -1.2985 -2.2548 0.0 0
M  V30 5 C 2.5971 -1.511 0.0 0
M  V30 6 C -2.5971 -1.511 0.0 0
M  V30 7 C -1.2985 -3.7541 0.0 0
M  V30 8 C 3.8957 -2.2666 0.0 0
M  V30 9 O -3.8957 -2.2666 0.0 0
M  V30 10 O -2.5971 -0.0118 0.0 0
M  V30 11 C -2.5971 -4.5096 0.0 0
M  V30 12 C -3.8957 0.7319 0.0 0
M  V30 13 C -1.8416 -5.8082 0.0 0
M  V30 14 C -3.8957 -5.2652 0.0 0
M  V30 15 C -3.3409 -3.211 0.0 0
M  V30 16 C -3.8957 2.2312 0.0 0
M  V30 END ATOM
M  V30 BEGIN BOND
M  V30 1 2 1 2
M  V30 2 1 2 3
M  V30 3 1 2 4
M  V30 4 1 3 5
M  V30 5 1 4 6
M  V30 6 2 4 7
M  V30 7 1 5 8
M  V30 8 2 6 9
M  V30 9 1 6 10
M  V30 10 1 7 11
M  V30 11 1 10 12
M  V30 12 1 11 13
M  V30 13 1 11 14
M  V30 14 1 11 15
M  V30 15 1 12 16
M  V30 END BOND
M  V30 END CTAB
M  END
>  <Molecule Name>
3,3-Dimethyl-1-butene-1,1-dicarboxylic acid, diethyl ester

>  <Activity Label>
0

>  <SMILES>
CCOC(C(C(OCC)=O)=CC(C)(C)C)=O

>  <Molecular Formula>
C12H20O4

>  <InChIKey>
WBXLTCRTGYJWFQ-UHFFFAOYSA-N

>  <Repellency>
Inactive

>  <Reference DOI>
10.3390/toxics11100837

>  <Target Organism>
Not applied

$$$$
Compound 750
Actelion Java MolfileCreator 2.0

  0  0  0  0  0  0              0 V3000
M  V30 BEGIN CTAB
M  V30 COUNTS 16 15 0 0 0
M  V30 BEGIN ATOM
M  V30 1 O 0.0 0.0 0.0 0
M  V30 2 C 0.0 1.5 0.0 0
M  V30 3 O 1.2992 2.2441 0.0 0
M  V30 4 C -1.2992 2.2441 0.0 0
M  V30 5 C 2.5985 1.4882 0.0 0
M  V30 6 C -2.5985 1.4882 0.0 0
M  V30 7 C 3.8977 2.2323 0.0 0
M  V30 8 C -3.8977 2.2323 0.0 0
M  V30 9 C 5.197 1.4764 0.0 0
M  V30 10 O -3.8977 3.7324 0.0 0
M  V30 11 O -5.197 1.4764 0.0 0
M  V30 12 C 6.4963 2.2205 0.0 0
M  V30 13 C -6.4963 2.2205 0.0 0
M  V30 14 C -7.7955 1.4646 0.0 0
M  V30 15 C -9.0948 2.2087 0.0 0
M  V30 16 C -10.3941 1.4528 0.0 0
M  V30 END ATOM
M  V30 BEGIN BOND
M  V30 1 2 1 2
M  V30 2 1 2 3
M  V30 3 1 2 4
M  V30 4 1 3 5
M  V30 5 1 4 6
M  V30 6 1 5 7
M  V30 7 1 6 8
M  V30 8 1 7 9
M  V30 9 2 8 10
M  V30 10 1 8 11
M  V30 11 1 9 12
M  V30 12 1 11 13
M  V30 13 1 13 14
M  V30 14 1 14 15
M  V30 15 1 15 16
M  V30 END BOND
M  V30 END CTAB
M  END
>  <Molecule Name>
Succinic acid, di-n-butyl ester

>  <Activity Label>
0

>  <SMILES>
CCCCOC(CCC(OCCCC)=O)=O

>  <Molecular Formula>
C12H22O4

>  <InChIKey>
YUXIBTJKHLUKBD-UHFFFAOYSA-N

>  <Repellency>
Inactive

>  <Reference DOI>
10.3390/toxics11100837

>  <Target Organism>
Not applied

$$$$
Compound 751
Actelion Java MolfileCreator 2.0

  0  0  0  0  0  0              0 V3000
M  V30 BEGIN CTAB
M  V30 COUNTS 16 15 0 0 0
M  V30 BEGIN ATOM
M  V30 1 O 0.0 0.0 0.0 0
M  V30 2 C 0.0 -1.4973 0.0 0
M  V30 3 O 1.2968 -2.2518 0.0 0
M  V30 4 C -1.2968 -2.2518 0.0 0
M  V30 5 C 2.5937 -1.4973 0.0 0
M  V30 6 O -1.2968 -3.7491 0.0 0
M  V30 7 O -2.5937 -1.4973 0.0 0
M  V30 8 C 3.8906 -2.2518 0.0 0
M  V30 9 C -3.8906 -2.2518 0.0 0
M  V30 10 C 5.1875 -1.4973 0.0 0
M  V30 11 C -5.1875 -1.4973 0.0 0
M  V30 12 C 6.4844 -2.2518 0.0 0
M  V30 13 C -6.4844 -2.2518 0.0 0
M  V30 14 C 7.7812 -1.4973 0.0 0
M  V30 15 C -7.7812 -1.4973 0.0 0
M  V30 16 C -9.0781 -2.2518 0.0 0
M  V30 END ATOM
M  V30 BEGIN BOND
M  V30 1 2 1 2
M  V30 2 1 2 3
M  V30 3 1 2 4
M  V30 4 1 3 5
M  V30 5 2 4 6
M  V30 6 1 4 7
M  V30 7 1 5 8
M  V30 8 1 7 9
M  V30 9 1 8 10
M  V30 10 1 9 11
M  V30 11 1 10 12
M  V30 12 1 11 13
M  V30 13 1 12 14
M  V30 14 1 13 15
M  V30 15 1 15 16
M  V30 END BOND
M  V30 END CTAB
M  END
>  <Molecule Name>
Oxalic acid, diamyl ester

>  <Activity Label>
0

>  <SMILES>
CCCCCOC(C(OCCCCC)=O)=O

>  <Molecular Formula>
C12H22O4

>  <InChIKey>
XAHVPYNDLCTDTE-UHFFFAOYSA-N

>  <Repellency>
Inactive

>  <Reference DOI>
10.3390/toxics11100837

>  <Target Organism>
Not applied

$$$$
Compound 752
Actelion Java MolfileCreator 2.0

  0  0  0  0  0  0              0 V3000
M  V30 BEGIN CTAB
M  V30 COUNTS 16 15 0 0 0
M  V30 BEGIN ATOM
M  V30 1 O 0.0 0.0 0.0 0
M  V30 2 C 0.0 1.4998 0.0 0
M  V30 3 O -1.299 2.2438 0.0 0
M  V30 4 C 1.299 2.2438 0.0 0
M  V30 5 C -2.5981 1.488 0.0 0
M  V30 6 C 2.5981 1.488 0.0 0
M  V30 7 C -3.8972 2.232 0.0 0
M  V30 8 C 3.8972 2.232 0.0 0
M  V30 9 C -5.1963 1.4762 0.0 0
M  V30 10 C 5.1963 1.4762 0.0 0
M  V30 11 C 6.4954 2.2202 0.0 0
M  V30 12 C 7.7945 1.4644 0.0 0
M  V30 13 C 9.0935 2.2084 0.0 0
M  V30 14 C 10.3926 1.4526 0.0 0
M  V30 15 C 11.6917 2.1966 0.0 0
M  V30 16 C 12.9908 1.4408 0.0 0
M  V30 END ATOM
M  V30 BEGIN BOND
M  V30 1 2 1 2
M  V30 2 1 2 3
M  V30 3 1 2 4
M  V30 4 1 3 5
M  V30 5 1 4 6
M  V30 6 1 5 7
M  V30 7 1 6 8
M  V30 8 1 7 9
M  V30 9 1 8 10
M  V30 10 1 10 11
M  V30 11 1 11 12
M  V30 12 1 12 13
M  V30 13 1 13 14
M  V30 14 1 14 15
M  V30 15 2 15 16
M  V30 END BOND
M  V30 END CTAB
M  END
>  <Molecule Name>
10-Hendecenoic acid, n-propyl ester

>  <Activity Label>
0

>  <SMILES>
CCCOC(CCCCCCCCC=C)=O

>  <Molecular Formula>
C14H26O2

>  <InChIKey>
WSIZDNPFIBZART-UHFFFAOYSA-N

>  <Repellency>
Inactive

>  <Reference DOI>
10.3390/toxics11100837

>  <Target Organism>
Not applied

$$$$
Compound 753
Actelion Java MolfileCreator 2.0

  0  0  0  0  0  0              0 V3000
M  V30 BEGIN CTAB
M  V30 COUNTS 16 15 0 0 0
M  V30 BEGIN ATOM
M  V30 1 O 0.0 0.0 0.0 0
M  V30 2 C 0.0 -1.4994 0.0 0
M  V30 3 O -1.2987 -2.2551 0.0 0
M  V30 4 C 1.2987 -2.2551 0.0 0
M  V30 5 C -2.5975 -1.5112 0.0 0
M  V30 6 C 2.5975 -1.5112 0.0 0
M  V30 7 C -3.8962 -2.2669 0.0 0
M  V30 8 C 3.8962 -2.2669 0.0 0
M  V30 9 C -5.195 -1.523 0.0 0
M  V30 10 C -6.4938 -2.2787 0.0 0
M  V30 11 C -5.195 -0.0236 0.0 0
M  V30 12 C -7.7925 -1.5348 0.0 0
M  V30 13 C -9.0913 -2.2905 0.0 0
M  V30 14 C -10.39 -1.5467 0.0 0
M  V30 15 C -11.6888 -2.3023 0.0 0
M  V30 16 C -10.39 -0.0472 0.0 0
M  V30 END ATOM
M  V30 BEGIN BOND
M  V30 1 2 1 2
M  V30 2 1 2 3
M  V30 3 1 2 4
M  V30 4 1 3 5
M  V30 5 2 4 6
M  V30 6 1 5 7
M  V30 7 1 6 8
M  V30 8 2 7 9
M  V30 9 1 9 10
M  V30 10 1 9 11
M  V30 11 1 10 12
M  V30 12 1 12 13
M  V30 13 2 13 14
M  V30 14 1 14 15
M  V30 15 1 14 16
M  V30 END BOND
M  V30 END CTAB
M  END
>  <Molecule Name>
Crotonic acid, geranyl ester

>  <Activity Label>
0

>  <SMILES>
C/C=C/C(OC/C=C(\C)/CCC=C(C)C)=O

>  <Molecular Formula>
C14H22O2

>  <InChIKey>
MQTAGIYIVBMTBT-XZUSAQEFSA-N

>  <Repellency>
Inactive

>  <Reference DOI>
10.3390/toxics11100837

>  <Target Organism>
Not applied

$$$$
Compound 754
Actelion Java MolfileCreator 2.0

  0  0  0  0  0  0              0 V3000
M  V30 BEGIN CTAB
M  V30 COUNTS 16 15 0 0 0
M  V30 BEGIN ATOM
M  V30 1 O 0.0 0.0 0.0 0
M  V30 2 C 0.0 -1.4994 0.0 0
M  V30 3 O -1.2987 -2.2551 0.0 0
M  V30 4 C 1.2987 -2.2551 0.0 0
M  V30 5 C -2.5975 -1.5112 0.0 0
M  V30 6 C 2.5975 -1.5112 0.0 0
M  V30 7 C -3.8962 -2.2669 0.0 0
M  V30 8 C 3.8962 -2.2669 0.0 0
M  V30 9 C -5.195 -1.523 0.0 0 CFG=2
M  V30 10 C -6.4938 -2.2787 0.0 0
M  V30 11 C -5.195 -0.0236 0.0 0
M  V30 12 C -7.7925 -1.5348 0.0 0
M  V30 13 C -9.0913 -2.2905 0.0 0
M  V30 14 C -10.39 -1.5467 0.0 0
M  V30 15 C -11.6888 -2.3023 0.0 0
M  V30 16 C -10.39 -0.0472 0.0 0
M  V30 END ATOM
M  V30 BEGIN BOND
M  V30 1 2 1 2
M  V30 2 1 2 3
M  V30 3 1 2 4
M  V30 4 1 3 5
M  V30 5 2 4 6
M  V30 6 1 5 7
M  V30 7 1 6 8
M  V30 8 1 7 9
M  V30 9 1 9 10
M  V30 10 1 9 11 CFG=3
M  V30 11 1 10 12
M  V30 12 1 12 13
M  V30 13 2 13 14
M  V30 14 1 14 15
M  V30 15 1 14 16
M  V30 END BOND
M  V30 BEGIN COLLECTION
M  V30 MDLV30/STERAC1 ATOMS=(1 9)
M  V30 END COLLECTION
M  V30 END CTAB
M  END
>  <Molecule Name>
Crotonic acid, citronellyl ester

>  <Activity Label>
0

>  <SMILES>
CC(CCC=C(C)C)CCOC(/C=C/C)=O

>  <Molecular Formula>
C14H24O2

>  <InChIKey>
MYGZJMACIRJNPL-FNORWQNLSA-N

>  <Repellency>
Inactive

>  <Reference DOI>
10.3390/toxics11100837

>  <Target Organism>
Not applied

$$$$
Compound 755
Actelion Java MolfileCreator 2.0

  0  0  0  0  0  0              0 V3000
M  V30 BEGIN CTAB
M  V30 COUNTS 16 15 0 0 0
M  V30 BEGIN ATOM
M  V30 1 O 0.0 0.0 0.0 0
M  V30 2 C 0.0 -1.4994 0.0 0
M  V30 3 O -1.2987 -2.255 0.0 0
M  V30 4 C 1.2987 -2.255 0.0 0
M  V30 5 C -2.5974 -1.5112 0.0 0
M  V30 6 C 2.5974 -1.5112 0.0 0
M  V30 7 C -3.8962 -2.2668 0.0 0
M  V30 8 C 3.8962 -2.2668 0.0 0
M  V30 9 C 5.1949 -1.523 0.0 0
M  V30 10 C 6.4937 -2.2787 0.0 0
M  V30 11 C 7.7924 -1.5348 0.0 0
M  V30 12 C 9.0911 -2.2905 0.0 0
M  V30 13 C 10.3899 -1.5466 0.0 0
M  V30 14 C 11.6886 -2.3023 0.0 0
M  V30 15 C 12.9874 -1.5584 0.0 0
M  V30 16 C 14.2861 -2.3141 0.0 0
M  V30 END ATOM
M  V30 BEGIN BOND
M  V30 1 2 1 2
M  V30 2 1 2 3
M  V30 3 1 2 4
M  V30 4 1 3 5
M  V30 5 1 4 6
M  V30 6 1 5 7
M  V30 7 1 6 8
M  V30 8 1 8 9
M  V30 9 1 9 10
M  V30 10 1 10 11
M  V30 11 1 11 12
M  V30 12 1 12 13
M  V30 13 1 13 14
M  V30 14 1 14 15
M  V30 15 1 15 16
M  V30 END BOND
M  V30 END CTAB
M  END
>  <Molecule Name>
Lauric acid, ethyl ester

>  <Activity Label>
0

>  <SMILES>
CCCCCCCCCCCC(OCC)=O

>  <Molecular Formula>
C14H28O2

>  <InChIKey>
MMXKVMNBHPAILY-UHFFFAOYSA-N

>  <Repellency>
Inactive

>  <Reference DOI>
10.3390/toxics11100837

>  <Target Organism>
Not applied

$$$$
Compound 756
Actelion Java MolfileCreator 2.0

  0  0  0  0  0  0              0 V3000
M  V30 BEGIN CTAB
M  V30 COUNTS 16 15 0 0 0
M  V30 BEGIN ATOM
M  V30 1 O 0.0 0.0 0.0 0
M  V30 2 C 0.0 -1.5026 0.0 0
M  V30 3 O -1.3014 -2.248 0.0 0
M  V30 4 C 1.3014 -2.248 0.0 0
M  V30 5 C -2.6029 -1.5026 0.0 0
M  V30 6 C -3.9044 -2.248 0.0 0
M  V30 7 C -5.2058 -1.5026 0.0 0
M  V30 8 C -6.5073 -2.248 0.0 0
M  V30 9 C -7.8088 -1.5026 0.0 0
M  V30 10 C -9.1103 -2.248 0.0 0
M  V30 11 C -10.4117 -1.5026 0.0 0
M  V30 12 C -11.7132 -2.248 0.0 0
M  V30 13 C -13.0147 -1.5026 0.0 0
M  V30 14 C -14.3162 -2.248 0.0 0
M  V30 15 C -15.6176 -1.5026 0.0 0
M  V30 16 C -16.9191 -2.248 0.0 0
M  V30 END ATOM
M  V30 BEGIN BOND
M  V30 1 2 1 2
M  V30 2 1 2 3
M  V30 3 1 2 4
M  V30 4 1 3 5
M  V30 5 1 5 6
M  V30 6 1 6 7
M  V30 7 1 7 8
M  V30 8 1 8 9
M  V30 9 1 9 10
M  V30 10 1 10 11
M  V30 11 1 11 12
M  V30 12 1 12 13
M  V30 13 1 13 14
M  V30 14 1 14 15
M  V30 15 1 15 16
M  V30 END BOND
M  V30 END CTAB
M  END
>  <Molecule Name>
Acetic acid, n-dodecyl ester

>  <Activity Label>
0

>  <SMILES>
CCCCCCCCCCCCOC(C)=O

>  <Molecular Formula>
C14H28O2

>  <InChIKey>
VZWGRQBCURJOMT-UHFFFAOYSA-N

>  <Repellency>
Inactive

>  <Reference DOI>
10.3390/toxics11100837

>  <Target Organism>
Not applied

$$$$
Compound 757
Actelion Java MolfileCreator 2.0

  0  0  0  0  0  0              0 V3000
M  V30 BEGIN CTAB
M  V30 COUNTS 16 15 0 0 0
M  V30 BEGIN ATOM
M  V30 1 O 0.0 0.0 0.0 0
M  V30 2 C 0.0 -1.5024 0.0 0
M  V30 3 O -1.3013 -2.2477 0.0 0
M  V30 4 C 1.3013 -2.2477 0.0 0
M  V30 5 C -2.6026 -1.5024 0.0 0
M  V30 6 C 2.6026 -1.5024 0.0 0
M  V30 7 C 1.3013 -3.7501 0.0 0
M  V30 8 C -3.9039 -2.2477 0.0 0
M  V30 9 C -5.2052 -1.5024 0.0 0
M  V30 10 C -6.5065 -2.2477 0.0 0
M  V30 11 C -7.8078 -1.5024 0.0 0
M  V30 12 C -9.1091 -2.2477 0.0 0
M  V30 13 C -10.4104 -1.5024 0.0 0
M  V30 14 C -11.7118 -2.2477 0.0 0
M  V30 15 C -13.0131 -1.5024 0.0 0
M  V30 16 C -14.3144 -2.2477 0.0 0
M  V30 END ATOM
M  V30 BEGIN BOND
M  V30 1 2 1 2
M  V30 2 1 2 3
M  V30 3 1 2 4
M  V30 4 1 3 5
M  V30 5 2 4 6
M  V30 6 1 4 7
M  V30 7 1 5 8
M  V30 8 1 8 9
M  V30 9 1 9 10
M  V30 10 1 10 11
M  V30 11 1 11 12
M  V30 12 1 12 13
M  V30 13 1 13 14
M  V30 14 1 14 15
M  V30 15 1 15 16
M  V30 END BOND
M  V30 END CTAB
M  END
>  <Molecule Name>
Methacrylic acid, decyl ester

>  <Activity Label>
0

>  <SMILES>
CCCCCCCCCCOC(C(C)=C)=O

>  <Molecular Formula>
C14H26O2

>  <InChIKey>
GTBGXKPAKVYEKJ-UHFFFAOYSA-N

>  <Repellency>
Inactive

>  <Reference DOI>
10.3390/toxics11100837

>  <Target Organism>
Not applied

$$$$
Compound 758
Actelion Java MolfileCreator 2.0

  0  0  0  0  0  0              0 V3000
M  V30 BEGIN CTAB
M  V30 COUNTS 16 15 0 0 0
M  V30 BEGIN ATOM
M  V30 1 O 0.0 0.0 0.0 0
M  V30 2 C -1.2968 0.7545 0.0 0
M  V30 3 C 1.2968 0.7545 0.0 0
M  V30 4 O -1.2968 2.2518 0.0 0
M  V30 5 C -2.5937 0.0 0.0 0
M  V30 6 C 2.5937 0.0 0.0 0
M  V30 7 C 0.0 3.0064 0.0 0
M  V30 8 C -3.8906 0.7545 0.0 0
M  V30 9 C 0.0 4.5037 0.0 0
M  V30 10 C -5.1875 0.0 0.0 0
M  V30 11 C -6.4844 0.7545 0.0 0
M  V30 12 C -7.7812 0.0 0.0 0
M  V30 13 C -9.0781 0.7545 0.0 0
M  V30 14 C -10.375 0.0 0.0 0
M  V30 15 C -11.6719 0.7545 0.0 0
M  V30 16 C -12.9688 0.0 0.0 0
M  V30 END ATOM
M  V30 BEGIN BOND
M  V30 1 1 1 2
M  V30 2 1 1 3
M  V30 3 1 2 4
M  V30 4 1 2 5
M  V30 5 1 3 6
M  V30 6 1 4 7
M  V30 7 1 5 8
M  V30 8 1 7 9
M  V30 9 1 8 10
M  V30 10 1 10 11
M  V30 11 1 11 12
M  V30 12 1 12 13
M  V30 13 1 13 14
M  V30 14 1 14 15
M  V30 15 1 15 16
M  V30 END BOND
M  V30 END CTAB
M  END
>  <Molecule Name>
Capraldehyde diethyl acetal

>  <Activity Label>
0

>  <SMILES>
CCCCCCCCCC(OCC)OCC

>  <Molecular Formula>
C14H30O2

>  <InChIKey>
GDDPLWAEEWIQKZ-UHFFFAOYSA-N

>  <Repellency>
Inactive

>  <Reference DOI>
10.3390/toxics11100837

>  <Target Organism>
Not applied

$$$$
Compound 759
Actelion Java MolfileCreator 2.0

  0  0  0  0  0  0              0 V3000
M  V30 BEGIN CTAB
M  V30 COUNTS 16 15 0 0 0
M  V30 BEGIN ATOM
M  V30 1 O 0.0 0.0 0.0 0
M  V30 2 C -1.2994 0.7442 0.0 0
M  V30 3 C 1.2994 0.7442 0.0 0
M  V30 4 O -1.2994 2.2444 0.0 0
M  V30 5 O -2.5988 -0.0118 0.0 0
M  V30 6 C 2.5988 -0.0118 0.0 0
M  V30 7 C 0.0 2.9887 0.0 0
M  V30 8 C -3.8983 0.7324 0.0 0
M  V30 9 O 3.8983 0.7324 0.0 0
M  V30 10 C 0.0 4.4889 0.0 0
M  V30 11 C -5.1977 -0.0236 0.0 0
M  V30 12 C 5.1977 -0.0236 0.0 0
M  V30 13 O 1.2994 5.2332 0.0 0
M  V30 14 O -6.4972 0.7206 0.0 0
M  V30 15 C 1.2994 6.7334 0.0 0
M  V30 16 C -7.7966 -0.0354 0.0 0
M  V30 END ATOM
M  V30 BEGIN BOND
M  V30 1 1 1 2
M  V30 2 1 1 3
M  V30 3 1 2 4
M  V30 4 1 2 5
M  V30 5 1 3 6
M  V30 6 1 4 7
M  V30 7 1 5 8
M  V30 8 1 6 9
M  V30 9 1 7 10
M  V30 10 1 8 11
M  V30 11 1 9 12
M  V30 12 1 10 13
M  V30 13 1 11 14
M  V30 14 1 13 15
M  V30 15 1 14 16
M  V30 END BOND
M  V30 END CTAB
M  END
>  <Molecule Name>
Orthoformic acid, tri-(2-methoxyethyl) ester

>  <Activity Label>
0

>  <SMILES>
COCCOC(OCCOC)OCCOC

>  <Molecular Formula>
C10H22O6

>  <InChIKey>
UAHWGDYDZHBBIY-UHFFFAOYSA-N

>  <Repellency>
Inactive

>  <Reference DOI>
10.3390/toxics11100837

>  <Target Organism>
Not applied

$$$$
Compound 760
Actelion Java MolfileCreator 2.0

  0  0  0  0  0  0              0 V3000
M  V30 BEGIN CTAB
M  V30 COUNTS 16 15 0 0 0
M  V30 BEGIN ATOM
M  V30 1 O 0.0 0.0 0.0 0
M  V30 2 C 0.0 1.5 0.0 0
M  V30 3 O -1.2992 2.2442 0.0 0
M  V30 4 C 1.2992 2.2442 0.0 0
M  V30 5 C -2.5985 1.4882 0.0 0
M  V30 6 C 2.5985 1.4882 0.0 0
M  V30 7 C -3.8978 2.2324 0.0 0
M  V30 8 C 3.8978 2.2324 0.0 0
M  V30 9 O -3.8978 3.7324 0.0 0
M  V30 10 O -5.1971 1.4764 0.0 0
M  V30 11 O 5.1971 1.4764 0.0 0
M  V30 12 O 3.8978 3.7324 0.0 0 CHG=-1
M  V30 13 C -2.5985 4.4766 0.0 0
M  V30 14 C -6.4964 2.2205 0.0 0
M  V30 15 C -2.5985 5.9766 0.0 0
M  V30 16 C -7.7956 1.4646 0.0 0
M  V30 END ATOM
M  V30 BEGIN BOND
M  V30 1 2 1 2
M  V30 2 1 2 3
M  V30 3 1 2 4
M  V30 4 1 3 5
M  V30 5 2 4 6
M  V30 6 1 5 7
M  V30 7 1 6 8
M  V30 8 1 7 9
M  V30 9 1 7 10
M  V30 10 2 8 11
M  V30 11 1 8 12
M  V30 12 1 9 13
M  V30 13 1 10 14
M  V30 14 1 13 15
M  V30 15 1 14 16
M  V30 END BOND
M  V30 END CTAB
M  END
>  <Molecule Name>
Fumaric acid, diethoxyethyl ester

>  <Activity Label>
0

>  <SMILES>
CCOC(COC(/C=C/C([O-])=O)=O)OCC

>  <Molecular Formula>
C10H15O6

>  <InChIKey>
WRGFFWGLVODCPW-AATRIKPKSA-M

>  <Repellency>
Inactive

>  <Reference DOI>
10.3390/toxics11100837

>  <Target Organism>
Not applied

$$$$
Compound 761
Actelion Java MolfileCreator 2.0

  0  0  0  0  0  0              0 V3000
M  V30 BEGIN CTAB
M  V30 COUNTS 16 15 0 0 0
M  V30 BEGIN ATOM
M  V30 1 O 0.0 0.0 0.0 0
M  V30 2 C 0.0 -1.5026 0.0 0 CFG=2
M  V30 3 C -1.3014 -2.248 0.0 0
M  V30 4 C 1.3014 -2.248 0.0 0
M  V30 5 C -2.6029 -1.5026 0.0 0
M  V30 6 C -3.9044 -2.248 0.0 0
M  V30 7 C -5.2058 -1.5026 0.0 0
M  V30 8 C -6.5073 -2.248 0.0 0
M  V30 9 C -7.8088 -1.5026 0.0 0
M  V30 10 C -9.1103 -2.248 0.0 0
M  V30 11 C -10.4117 -1.5026 0.0 0
M  V30 12 C -11.7132 -2.248 0.0 0
M  V30 13 C -13.0147 -1.5026 0.0 0
M  V30 14 C -14.3162 -2.248 0.0 0
M  V30 15 C -15.6176 -1.5026 0.0 0
M  V30 16 C -16.9191 -2.248 0.0 0
M  V30 END ATOM
M  V30 BEGIN BOND
M  V30 1 1 2 1 CFG=1
M  V30 2 1 2 3
M  V30 3 1 2 4
M  V30 4 2 3 5 CFG=2
M  V30 5 1 5 6
M  V30 6 1 6 7
M  V30 7 1 7 8
M  V30 8 1 8 9
M  V30 9 1 9 10
M  V30 10 1 10 11
M  V30 11 1 11 12
M  V30 12 1 12 13
M  V30 13 1 13 14
M  V30 14 1 14 15
M  V30 15 1 15 16
M  V30 END BOND
M  V30 BEGIN COLLECTION
M  V30 MDLV30/STERAC1 ATOMS=(1 2)
M  V30 END COLLECTION
M  V30 END CTAB
M  END
>  <Molecule Name>
Methyl undecylvinylcarbinol

>  <Activity Label>
0

>  <SMILES>
CCCCCCCCCCCC=CC(C)O

>  <Molecular Formula>
C15H30O

>  <InChIKey>
PPQZFLDZTSSJBT-UHFFFAOYSA-N

>  <Repellency>
Inactive

>  <Reference DOI>
10.3390/toxics11100837

>  <Target Organism>
Not applied

$$$$
Compound 762
Actelion Java MolfileCreator 2.0

  0  0  0  0  0  0              0 V3000
M  V30 BEGIN CTAB
M  V30 COUNTS 16 15 0 0 0
M  V30 BEGIN ATOM
M  V30 1 O 0.0 0.0 0.0 0
M  V30 2 C 0.0 -1.4994 0.0 0
M  V30 3 O 1.2987 -2.2551 0.0 0
M  V30 4 C -1.2987 -2.2551 0.0 0
M  V30 5 C 2.5975 -1.5112 0.0 0
M  V30 6 C -2.5975 -1.5112 0.0 0
M  V30 7 C 3.8962 -2.2669 0.0 0
M  V30 8 C -3.8962 -2.2669 0.0 0
M  V30 9 O -3.8962 -3.7664 0.0 0
M  V30 10 C -5.195 -1.523 0.0 0
M  V30 11 C -6.4938 -2.2787 0.0 0
M  V30 12 C -7.7925 -1.5348 0.0 0
M  V30 13 O -7.7925 -0.0354 0.0 0
M  V30 14 O -9.0913 -2.2905 0.0 0
M  V30 15 C -10.39 -1.5467 0.0 0
M  V30 16 C -11.6888 -2.3023 0.0 0
M  V30 END ATOM
M  V30 BEGIN BOND
M  V30 1 2 1 2
M  V30 2 1 2 3
M  V30 3 1 2 4
M  V30 4 1 3 5
M  V30 5 1 4 6
M  V30 6 1 5 7
M  V30 7 1 6 8
M  V30 8 2 8 9
M  V30 9 1 8 10
M  V30 10 1 10 11
M  V30 11 1 11 12
M  V30 12 2 12 13
M  V30 13 1 12 14
M  V30 14 1 14 15
M  V30 15 1 15 16
M  V30 END BOND
M  V30 END CTAB
M  END
>  <Molecule Name>
4-Ketopimelic acid, diethyl ester

>  <Activity Label>
0

>  <SMILES>
CCOC(CCC(CCC(OCC)=O)=O)=O

>  <Molecular Formula>
C11H18O5

>  <InChIKey>
ZGBUXZJMZBBISR-UHFFFAOYSA-N

>  <Repellency>
Inactive

>  <Reference DOI>
10.3390/toxics11100837

>  <Target Organism>
Not applied

$$$$
Compound 763
Actelion Java MolfileCreator 2.0

  0  0  0  0  0  0              0 V3000
M  V30 BEGIN CTAB
M  V30 COUNTS 16 15 0 0 0
M  V30 BEGIN ATOM
M  V30 1 O 0.0 0.0 0.0 0
M  V30 2 C -1.2783 0.7364 0.0 0
M  V30 3 O -1.4311 2.501 0.0 0
M  V30 4 C -2.5566 0.0 0.0 0
M  V30 5 C -0.0138 2.9456 0.0 0
M  V30 6 C -3.8349 0.7364 0.0 0
M  V30 7 C -2.5566 1.4728 0.0 0
M  V30 8 C -2.5566 -1.4728 0.0 0
M  V30 9 C -0.0138 4.4184 0.0 0
M  V30 10 O -4.0155 2.1536 0.0 0
M  V30 11 O -5.1132 0.0 0.0 0
M  V30 12 O -3.4736 2.3204 0.0 0
M  V30 13 C -0.9309 2.2926 0.0 0
M  V30 14 C -3.8349 -2.2092 0.0 0
M  V30 15 C -6.3915 0.7364 0.0 0
M  V30 16 C -7.6698 0.0 0.0 0
M  V30 END ATOM
M  V30 BEGIN BOND
M  V30 1 2 1 2
M  V30 2 1 2 3
M  V30 3 1 2 4
M  V30 4 1 3 5
M  V30 5 1 4 6
M  V30 6 1 4 7
M  V30 7 1 4 8
M  V30 8 1 5 9
M  V30 9 2 6 10
M  V30 10 1 6 11
M  V30 11 2 7 12
M  V30 12 1 7 13
M  V30 13 1 8 14
M  V30 14 1 11 15
M  V30 15 1 15 16
M  V30 END BOND
M  V30 END CTAB
M  END
>  <Molecule Name>
Ethylacetylmalonic acid, diethyl ester

>  <Activity Label>
0

>  <SMILES>
CCC(C(C)=O)(C(OCC)=O)C(OCC)=O

>  <Molecular Formula>
C11H18O5

>  <InChIKey>
YNPAOEVNTZRKCL-UHFFFAOYSA-N

>  <Repellency>
Inactive

>  <Reference DOI>
10.3390/toxics11100837

>  <Target Organism>
Not applied

$$$$
Compound 764
Actelion Java MolfileCreator 2.0

  0  0  0  0  0  0              0 V3000
M  V30 BEGIN CTAB
M  V30 COUNTS 16 15 0 0 0
M  V30 BEGIN ATOM
M  V30 1 O 0.0 0.0 0.0 0
M  V30 2 C 0.0 -1.5024 0.0 0
M  V30 3 O -1.3013 -2.2477 0.0 0
M  V30 4 C 1.3013 -2.2477 0.0 0 CFG=1
M  V30 5 C -2.6026 -1.5024 0.0 0
M  V30 6 O 2.6026 -1.5024 0.0 0
M  V30 7 C 1.3013 -3.7501 0.0 0
M  V30 8 C -3.9039 -2.2477 0.0 0
M  V30 9 C -5.2052 -1.5024 0.0 0
M  V30 10 C -6.5065 -2.2477 0.0 0
M  V30 11 C -7.8078 -1.5024 0.0 0
M  V30 12 C -9.1091 -2.2477 0.0 0
M  V30 13 C -10.4104 -1.5024 0.0 0
M  V30 14 C -11.7118 -2.2477 0.0 0
M  V30 15 C -13.0131 -1.5024 0.0 0
M  V30 16 C -14.3144 -2.2477 0.0 0
M  V30 END ATOM
M  V30 BEGIN BOND
M  V30 1 2 1 2
M  V30 2 1 2 3
M  V30 3 1 2 4
M  V30 4 1 3 5
M  V30 5 1 4 6 CFG=1
M  V30 6 1 4 7
M  V30 7 1 5 8
M  V30 8 1 8 9
M  V30 9 1 9 10
M  V30 10 1 10 11
M  V30 11 1 11 12
M  V30 12 1 12 13
M  V30 13 1 13 14
M  V30 14 1 14 15
M  V30 15 1 15 16
M  V30 END BOND
M  V30 BEGIN COLLECTION
M  V30 MDLV30/STERAC1 ATOMS=(1 4)
M  V30 END COLLECTION
M  V30 END CTAB
M  END
>  <Molecule Name>
Lactic acid, decyl ester

>  <Activity Label>
0

>  <SMILES>
CCCCCCCCCCOC(C(C)O)=O

>  <Molecular Formula>
C13H26O3

>  <InChIKey>
FUGCGCXGFWNOSY-UHFFFAOYSA-N

>  <Repellency>
Inactive

>  <Reference DOI>
10.3390/toxics11100837

>  <Target Organism>
Not applied

$$$$
Compound 765
Actelion Java MolfileCreator 2.0

  0  0  0  0  0  0              0 V3000
M  V30 BEGIN CTAB
M  V30 COUNTS 16 15 0 0 0
M  V30 BEGIN ATOM
M  V30 1 O 0.0 0.0 0.0 0
M  V30 2 C 0.0 -1.4998 0.0 0
M  V30 3 O 1.2991 -2.2557 0.0 0
M  V30 4 C -1.2991 -2.2557 0.0 0
M  V30 5 C 2.5982 -1.5116 0.0 0
M  V30 6 C -2.5982 -1.5116 0.0 0 CFG=2
M  V30 7 C 3.8973 -2.2675 0.0 0
M  V30 8 O -2.5982 -0.0118 0.0 0
M  V30 9 C -3.8973 -2.2675 0.0 0
M  V30 10 C 5.1964 -1.5234 0.0 0
M  V30 11 C -5.1964 -1.5234 0.0 0
M  V30 12 C -3.8973 -3.7673 0.0 0
M  V30 13 C -6.4955 -2.2793 0.0 0
M  V30 14 C -2.5982 -4.5114 0.0 0
M  V30 15 C -7.7946 -1.5353 0.0 0
M  V30 16 C -9.0937 -2.2911 0.0 0
M  V30 END ATOM
M  V30 BEGIN BOND
M  V30 1 2 1 2
M  V30 2 1 2 3
M  V30 3 1 2 4
M  V30 4 1 3 5
M  V30 5 1 4 6
M  V30 6 1 5 7
M  V30 7 1 6 8 CFG=1
M  V30 8 1 6 9
M  V30 9 2 7 10
M  V30 10 2 9 11 CFG=2
M  V30 11 1 9 12
M  V30 12 1 11 13
M  V30 13 1 12 14
M  V30 14 1 13 15
M  V30 15 1 15 16
M  V30 END BOND
M  V30 BEGIN COLLECTION
M  V30 MDLV30/STERAC1 ATOMS=(1 6)
M  V30 END COLLECTION
M  V30 END CTAB
M  END
>  <Molecule Name>
3-Hydroxy-4-ethyl-4-octenoic acid, allyl ester

>  <Activity Label>
0

>  <SMILES>
CCCC=C(CC)C(CC(OCC=C)=O)O

>  <Molecular Formula>
C13H22O3

>  <InChIKey>
RHAXPQPOCPMQGW-UHFFFAOYSA-N

>  <Repellency>
Inactive

>  <Reference DOI>
10.3390/toxics11100837

>  <Target Organism>
Not applied

$$$$
Compound 766
Actelion Java MolfileCreator 2.0

  0  0  0  0  0  0              0 V3000
M  V30 BEGIN CTAB
M  V30 COUNTS 16 15 0 0 0
M  V30 BEGIN ATOM
M  V30 1 O 0.0 0.0 0.0 0
M  V30 2 C 0.0 -1.4998 0.0 0
M  V30 3 O 1.2991 -2.2557 0.0 0
M  V30 4 C -1.2991 -2.2557 0.0 0
M  V30 5 C 2.5982 -1.5116 0.0 0
M  V30 6 C -2.5982 -1.5116 0.0 0
M  V30 7 C 3.8973 -2.2675 0.0 0
M  V30 8 O -2.5982 -0.0118 0.0 0
M  V30 9 C -3.8973 -2.2675 0.0 0
M  V30 10 C 5.1964 -1.5234 0.0 0
M  V30 11 C -5.1964 -1.5234 0.0 0
M  V30 12 C -3.8973 -3.7673 0.0 0
M  V30 13 C -6.4955 -2.2793 0.0 0
M  V30 14 C -2.5982 -4.5114 0.0 0
M  V30 15 C -7.7946 -1.5353 0.0 0
M  V30 16 C -9.0937 -2.2911 0.0 0
M  V30 END ATOM
M  V30 BEGIN BOND
M  V30 1 2 1 2
M  V30 2 1 2 3
M  V30 3 1 2 4
M  V30 4 1 3 5
M  V30 5 1 4 6
M  V30 6 1 5 7
M  V30 7 1 6 8
M  V30 8 1 6 9
M  V30 9 1 7 10
M  V30 10 1 9 11
M  V30 11 1 9 12
M  V30 12 1 11 13
M  V30 13 1 12 14
M  V30 14 1 13 15
M  V30 15 1 15 16
M  V30 END BOND
M  V30 END CTAB
M  END
>  <Molecule Name>
3-Hydroxy-4-ethyloctanoic acid, propyl ester

>  <Activity Label>
0

>  <SMILES>
CCCCC(CC)C(CC(OCCC)=O)O

>  <Molecular Formula>
C13H26O3

>  <InChIKey>
JRKICFRGZMKSPH-UHFFFAOYSA-N

>  <Repellency>
Inactive

>  <Reference DOI>
10.3390/toxics11100837

>  <Target Organism>
Not applied

$$$$
Compound 767
Actelion Java MolfileCreator 2.0

  0  0  0  0  0  0              0 V3000
M  V30 BEGIN CTAB
M  V30 COUNTS 16 15 0 0 0
M  V30 BEGIN ATOM
M  V30 1 O 0.0 0.0 0.0 0
M  V30 2 C 0.0 1.5 0.0 0
M  V30 3 O -1.2992 2.2441 0.0 0
M  V30 4 C 1.2992 2.2441 0.0 0
M  V30 5 C -2.5985 1.4882 0.0 0
M  V30 6 C 2.5985 1.4882 0.0 0
M  V30 7 C -3.8977 2.2323 0.0 0
M  V30 8 O -5.197 1.4764 0.0 0
M  V30 9 C -6.4963 2.2205 0.0 0
M  V30 10 C -7.7955 1.4646 0.0 0 CFG=2
M  V30 11 C -9.0948 2.2087 0.0 0
M  V30 12 C -7.7955 -0.0354 0.0 0
M  V30 13 C -10.3941 1.4528 0.0 0
M  V30 14 C -6.4963 -0.7795 0.0 0
M  V30 15 C -11.6933 2.1969 0.0 0
M  V30 16 C -12.9926 1.441 0.0 0
M  V30 END ATOM
M  V30 BEGIN BOND
M  V30 1 2 1 2
M  V30 2 1 2 3
M  V30 3 1 2 4
M  V30 4 1 3 5
M  V30 5 2 4 6
M  V30 6 1 5 7
M  V30 7 1 7 8
M  V30 8 1 8 9
M  V30 9 1 10 9 CFG=1
M  V30 10 1 10 11
M  V30 11 1 10 12
M  V30 12 1 11 13
M  V30 13 1 12 14
M  V30 14 1 13 15
M  V30 15 1 15 16
M  V30 END BOND
M  V30 BEGIN COLLECTION
M  V30 MDLV30/STERAC1 ATOMS=(1 10)
M  V30 END COLLECTION
M  V30 END CTAB
M  END
>  <Molecule Name>
Acrylic acid, beta-(2-ethyl-hexoxy)-ethyl ester

>  <Activity Label>
0

>  <SMILES>
CCCCC(CC)COCCOC(C=C)=O

>  <Molecular Formula>
C13H24O3

>  <InChIKey>
NZAZOEQPICNQIB-UHFFFAOYSA-N

>  <Repellency>
Inactive

>  <Reference DOI>
10.3390/toxics11100837

>  <Target Organism>
Not applied

$$$$
Compound 768
Actelion Java MolfileCreator 2.0

  0  0  0  0  0  0              0 V3000
M  V30 BEGIN CTAB
M  V30 COUNTS 16 15 0 0 0
M  V30 BEGIN ATOM
M  V30 1 O 0.0 0.0 0.0 0
M  V30 2 C -1.2994 0.7442 0.0 0
M  V30 3 C 1.2994 0.7442 0.0 0
M  V30 4 O -1.2994 2.2444 0.0 0
M  V30 5 O -2.5988 -0.0118 0.0 0
M  V30 6 C 2.5988 -0.0118 0.0 0
M  V30 7 C 0.0 2.9887 0.0 0
M  V30 8 C -3.8983 0.7324 0.0 0
M  V30 9 C 3.8983 0.7324 0.0 0
M  V30 10 C 0.0 4.4889 0.0 0
M  V30 11 C -5.1977 -0.0236 0.0 0
M  V30 12 C 5.1977 -0.0236 0.0 0
M  V30 13 C 1.2994 5.2332 0.0 0
M  V30 14 C -6.4972 0.7206 0.0 0
M  V30 15 C 1.2994 6.7334 0.0 0
M  V30 16 C -7.7966 -0.0354 0.0 0
M  V30 END ATOM
M  V30 BEGIN BOND
M  V30 1 1 1 2
M  V30 2 1 1 3
M  V30 3 1 2 4
M  V30 4 1 2 5
M  V30 5 1 3 6
M  V30 6 1 4 7
M  V30 7 1 5 8
M  V30 8 1 6 9
M  V30 9 1 7 10
M  V30 10 1 8 11
M  V30 11 1 9 12
M  V30 12 1 10 13
M  V30 13 1 11 14
M  V30 14 1 13 15
M  V30 15 1 14 16
M  V30 END BOND
M  V30 END CTAB
M  END
>  <Molecule Name>
Orthoformic acid, tri-n-butyl ester

>  <Activity Label>
0

>  <SMILES>
CCCCOC(OCCCC)OCCCC

>  <Molecular Formula>
C13H28O3

>  <InChIKey>
SGJBIFUEFLWXJY-UHFFFAOYSA-N

>  <Repellency>
Inactive

>  <Reference DOI>
10.3390/toxics11100837

>  <Target Organism>
Not applied

$$$$
Compound 769
Actelion Java MolfileCreator 2.0

  0  0  0  0  0  0              0 V3000
M  V30 BEGIN CTAB
M  V30 COUNTS 16 15 0 0 0
M  V30 BEGIN ATOM
M  V30 1 O 0.0 0.0 0.0 0
M  V30 2 C -1.2994 0.7442 0.0 0
M  V30 3 C 1.2994 0.7442 0.0 0
M  V30 4 O -2.5988 -0.0118 0.0 0
M  V30 5 C -1.2994 2.2444 0.0 0
M  V30 6 C 2.5988 -0.0118 0.0 0
M  V30 7 C -3.8983 0.7324 0.0 0
M  V30 8 C 0.0 2.9887 0.0 0
M  V30 9 C 3.8983 0.7324 0.0 0
M  V30 10 C -5.1977 -0.0236 0.0 0
M  V30 11 O 0.0 4.4889 0.0 0
M  V30 12 C 5.1977 -0.0236 0.0 0
M  V30 13 C -6.4972 0.7206 0.0 0
M  V30 14 C 1.2994 5.2332 0.0 0
M  V30 15 C -7.7966 -0.0354 0.0 0
M  V30 16 C 1.2994 6.7334 0.0 0
M  V30 END ATOM
M  V30 BEGIN BOND
M  V30 1 1 1 2
M  V30 2 1 1 3
M  V30 3 1 2 4
M  V30 4 1 2 5
M  V30 5 1 3 6
M  V30 6 1 4 7
M  V30 7 1 5 8
M  V30 8 1 6 9
M  V30 9 1 7 10
M  V30 10 1 8 11
M  V30 11 1 9 12
M  V30 12 1 10 13
M  V30 13 1 11 14
M  V30 14 1 13 15
M  V30 15 1 14 16
M  V30 END BOND
M  V30 END CTAB
M  END
>  <Molecule Name>
3-Ethoxypropionaldehyde dibutyl acetal

>  <Activity Label>
0

>  <SMILES>
CCCCOC(CCOCC)OCCCC

>  <Molecular Formula>
C13H28O3

>  <InChIKey>
ONUIHTSCSVHHFI-UHFFFAOYSA-N

>  <Repellency>
Inactive

>  <Reference DOI>
10.3390/toxics11100837

>  <Target Organism>
Not applied

$$$$
Compound 770
Actelion Java MolfileCreator 2.0

  0  0  0  0  0  0              0 V3000
M  V30 BEGIN CTAB
M  V30 COUNTS 16 15 0 0 0
M  V30 BEGIN ATOM
M  V30 1 O 0.0 0.0 0.0 0
M  V30 2 C 0.0 -1.5018 0.0 0
M  V30 3 O -1.3008 -2.2468 0.0 0
M  V30 4 C 1.3008 -2.2468 0.0 0
M  V30 5 C -2.6016 -1.5018 0.0 0
M  V30 6 C 2.6016 -1.5018 0.0 0
M  V30 7 C -3.9024 -2.2468 0.0 0
M  V30 8 C 3.9024 -2.2468 0.0 0
M  V30 9 O -5.2032 -1.5018 0.0 0
M  V30 10 O 3.9024 -3.7486 0.0 0
M  V30 11 N 5.2032 -1.5018 0.0 0
M  V30 12 C -6.504 -2.2468 0.0 0
M  V30 13 C 6.504 -2.2468 0.0 0
M  V30 14 C 5.2032 0.0 0.0 0
M  V30 15 C 7.8048 -1.5018 0.0 0
M  V30 16 C 3.9024 0.7568 0.0 0
M  V30 END ATOM
M  V30 BEGIN BOND
M  V30 1 2 1 2
M  V30 2 1 2 3
M  V30 3 1 2 4
M  V30 4 1 3 5
M  V30 5 1 4 6
M  V30 6 1 5 7
M  V30 7 1 6 8
M  V30 8 1 7 9
M  V30 9 2 8 10
M  V30 10 1 8 11
M  V30 11 1 9 12
M  V30 12 1 11 13
M  V30 13 1 11 14
M  V30 14 1 13 15
M  V30 15 1 14 16
M  V30 END BOND
M  V30 END CTAB
M  END
>  <Molecule Name>
N,N-Diethylsuccinamic acid, 2-methoxyethyl ester

>  <Activity Label>
0

>  <SMILES>
CCN(CC)C(CCC(OCCOC)=O)=O

>  <Molecular Formula>
C11H21NO4

>  <InChIKey>
PNQQZNDBBCVIEY-UHFFFAOYSA-N

>  <Repellency>
Inactive

>  <Reference DOI>
10.3390/toxics11100837

>  <Target Organism>
Not applied

$$$$
Compound 771
Actelion Java MolfileCreator 2.0

  0  0  0  0  0  0              0 V3000
M  V30 BEGIN CTAB
M  V30 COUNTS 16 15 0 0 0
M  V30 BEGIN ATOM
M  V30 1 O 0.0 0.0 0.0 0
M  V30 2 C -1.3001 0.7446 0.0 0
M  V30 3 O -2.6003 0.0 0.0 0
M  V30 4 C -1.3001 2.2457 0.0 0 CFG=1
M  V30 5 C -3.9004 0.7446 0.0 0
M  V30 6 C -1.3001 3.7468 0.0 0
M  V30 7 C 0.0 2.9903 0.0 0
M  V30 8 C -2.6003 2.9903 0.0 0
M  V30 9 C -5.2006 0.0 0.0 0
M  V30 10 N -1.3001 5.2479 0.0 0
M  V30 11 C 1.3001 2.2339 0.0 0
M  V30 12 C 0.0 4.4914 0.0 0
M  V30 13 C -2.6003 4.4914 0.0 0
M  V30 14 C 1.3001 0.7328 0.0 0
M  V30 15 C -3.9004 5.2361 0.0 0
M  V30 16 C -3.9004 6.7372 0.0 0
M  V30 END ATOM
M  V30 BEGIN BOND
M  V30 1 2 1 2
M  V30 2 1 2 3
M  V30 3 1 2 4
M  V30 4 1 3 5
M  V30 5 1 4 6 CFG=1
M  V30 6 1 4 7
M  V30 7 1 4 8
M  V30 8 1 5 9
M  V30 9 3 6 10
M  V30 10 2 7 11 CFG=2
M  V30 11 1 7 12
M  V30 12 1 8 13
M  V30 13 1 11 14
M  V30 14 1 13 15
M  V30 15 1 15 16
M  V30 END BOND
M  V30 BEGIN COLLECTION
M  V30 MDLV30/STERAC1 ATOMS=(1 4)
M  V30 END COLLECTION
M  V30 END CTAB
M  END
>  <Molecule Name>
(1-Methyl-1-propenyl)butylcyanoacetic acid, ethyl ester

>  <Activity Label>
0

>  <SMILES>
CCCCC(C(C)=CC)(C(OCC)=O)C#N

>  <Molecular Formula>
C13H21NO2

>  <InChIKey>
BWRCRRIQPQKMKL-UHFFFAOYSA-N

>  <Repellency>
Inactive

>  <Reference DOI>
10.3390/toxics11100837

>  <Target Organism>
Not applied

$$$$
Compound 772
Actelion Java MolfileCreator 2.0

  0  0  0  0  0  0              0 V3000
M  V30 BEGIN CTAB
M  V30 COUNTS 16 15 0 0 0
M  V30 BEGIN ATOM
M  V30 1 O 0.0 0.0 0.0 0
M  V30 2 C -1.2985 -0.7437 0.0 0
M  V30 3 O -2.5971 0.0118 0.0 0
M  V30 4 N -1.2985 -2.243 0.0 0
M  V30 5 C -2.5971 1.511 0.0 0
M  V30 6 C 0.0 -2.9985 0.0 0
M  V30 7 C -2.5971 -2.9985 0.0 0
M  V30 8 C -3.8957 2.2666 0.0 0
M  V30 9 C 1.2985 -2.2548 0.0 0
M  V30 10 C -3.8957 -2.2548 0.0 0
M  V30 11 C 2.5971 -3.0103 0.0 0
M  V30 12 C -5.1943 -3.0103 0.0 0
M  V30 13 C 3.8957 -2.2666 0.0 0
M  V30 14 C -6.4929 -2.2666 0.0 0
M  V30 15 C 5.1943 -3.0221 0.0 0
M  V30 16 C -7.7914 -3.0221 0.0 0
M  V30 END ATOM
M  V30 BEGIN BOND
M  V30 1 2 1 2
M  V30 2 1 2 3
M  V30 3 1 2 4
M  V30 4 1 3 5
M  V30 5 1 4 6
M  V30 6 1 4 7
M  V30 7 1 5 8
M  V30 8 1 6 9
M  V30 9 1 7 10
M  V30 10 1 9 11
M  V30 11 1 10 12
M  V30 12 1 11 13
M  V30 13 1 12 14
M  V30 14 1 13 15
M  V30 15 1 14 16
M  V30 END BOND
M  V30 END CTAB
M  END
>  <Molecule Name>
N,N- Di-n-amylurethane

>  <Activity Label>
0

>  <SMILES>
CCCCCN(CCCCC)C(OCC)=O

>  <Molecular Formula>
C13H27NO2

>  <InChIKey>
CASZBYBIFZEQFA-UHFFFAOYSA-N

>  <Repellency>
Inactive

>  <Reference DOI>
10.3390/toxics11100837

>  <Target Organism>
Not applied

$$$$
Compound 773
Actelion Java MolfileCreator 2.0

  0  0  0  0  0  0              0 V3000
M  V30 BEGIN CTAB
M  V30 COUNTS 16 15 0 0 0
M  V30 BEGIN ATOM
M  V30 1 O 0.0 0.0 0.0 0
M  V30 2 C 1.2992 0.7441 0.0 0
M  V30 3 N 1.2992 2.2442 0.0 0
M  V30 4 C 2.5985 0.0 0.0 0
M  V30 5 C 2.5985 2.9883 0.0 0
M  V30 6 C 0.0 2.9883 0.0 0
M  V30 7 C 2.5985 -1.5 0.0 0
M  V30 8 C 3.8978 2.2324 0.0 0
M  V30 9 C -1.2992 2.2324 0.0 0
M  V30 10 C 3.8978 -2.256 0.0 0
M  V30 11 C 5.1971 2.9765 0.0 0
M  V30 12 C -2.5985 2.9765 0.0 0
M  V30 13 C 6.4964 2.2205 0.0 0
M  V30 14 C 5.1971 4.4766 0.0 0
M  V30 15 C -2.5985 4.4766 0.0 0
M  V30 16 C -3.8978 2.2205 0.0 0
M  V30 END ATOM
M  V30 BEGIN BOND
M  V30 1 2 1 2
M  V30 2 1 2 3
M  V30 3 1 2 4
M  V30 4 1 3 5
M  V30 5 1 3 6
M  V30 6 1 4 7
M  V30 7 1 5 8
M  V30 8 1 6 9
M  V30 9 1 7 10
M  V30 10 1 8 11
M  V30 11 1 9 12
M  V30 12 1 11 13
M  V30 13 1 11 14
M  V30 14 1 12 15
M  V30 15 1 12 16
M  V30 END BOND
M  V30 END CTAB
M  END
>  <Molecule Name>
N,N-Di-iso-amyl-n-butyramide

>  <Activity Label>
0

>  <SMILES>
CCCC(N(CCC(C)C)CCC(C)C)=O

>  <Molecular Formula>
C14H29NO

>  <InChIKey>
UZDWBMQCGIYLMF-UHFFFAOYSA-N

>  <Repellency>
Inactive

>  <Reference DOI>
10.3390/toxics11100837

>  <Target Organism>
Not applied

$$$$
Compound 774
Actelion Java MolfileCreator 2.0

  0  0  0  0  0  0              0 V3000
M  V30 BEGIN CTAB
M  V30 COUNTS 16 15 0 0 0
M  V30 BEGIN ATOM
M  V30 1 O 0.0 0.0 0.0 0
M  V30 2 C 0.0 -1.5018 0.0 0
M  V30 3 O -1.3008 -2.2468 0.0 0
M  V30 4 C 1.3008 -2.2468 0.0 0
M  V30 5 C -2.6016 -1.5018 0.0 0
M  V30 6 C 2.6016 -1.5018 0.0 0
M  V30 7 C -3.9024 -2.2468 0.0 0
M  V30 8 C 3.9024 -2.2468 0.0 0
M  V30 9 C -5.2032 -1.5018 0.0 0
M  V30 10 O 3.9024 -3.7486 0.0 0
M  V30 11 N 5.2032 -1.5018 0.0 0
M  V30 12 C -6.504 -2.2468 0.0 0
M  V30 13 C 6.504 -2.2468 0.0 0
M  V30 14 C 5.2032 0.0 0.0 0
M  V30 15 C 7.8048 -1.5018 0.0 0
M  V30 16 C 3.9024 0.7568 0.0 0
M  V30 END ATOM
M  V30 BEGIN BOND
M  V30 1 2 1 2
M  V30 2 1 2 3
M  V30 3 1 2 4
M  V30 4 1 3 5
M  V30 5 1 4 6
M  V30 6 1 5 7
M  V30 7 1 6 8
M  V30 8 1 7 9
M  V30 9 2 8 10
M  V30 10 1 8 11
M  V30 11 1 9 12
M  V30 12 1 11 13
M  V30 13 1 11 14
M  V30 14 1 13 15
M  V30 15 1 14 16
M  V30 END BOND
M  V30 END CTAB
M  END
>  <Molecule Name>
N,N-Diethylsuccinamic acid, n-butyl ester

>  <Activity Label>
0

>  <SMILES>
CCCCOC(CCC(N(CC)CC)=O)=O

>  <Molecular Formula>
C12H23NO3

>  <InChIKey>
OFTGTCHCSROTSG-UHFFFAOYSA-N

>  <Repellency>
Inactive

>  <Reference DOI>
10.3390/toxics11100837

>  <Target Organism>
Not applied

$$$$
Compound 775
Actelion Java MolfileCreator 2.0

  0  0  0  0  0  0              0 V3000
M  V30 BEGIN CTAB
M  V30 COUNTS 16 15 0 0 0
M  V30 BEGIN ATOM
M  V30 1 O 0.0 0.0 0.0 0
M  V30 2 C 0.0 1.5016 0.0 0
M  V30 3 O -1.3006 2.2465 0.0 0
M  V30 4 C 1.3006 2.2465 0.0 0
M  V30 5 C -2.6012 1.5016 0.0 0
M  V30 6 C 2.6012 1.5016 0.0 0
M  V30 7 C -3.9019 2.2465 0.0 0
M  V30 8 C 3.9019 2.2465 0.0 0
M  V30 9 C -3.9019 3.7482 0.0 0
M  V30 10 C -5.2025 1.5016 0.0 0
M  V30 11 O 3.9019 3.7482 0.0 0
M  V30 12 N 5.2025 1.5016 0.0 0
M  V30 13 C 6.5032 2.2465 0.0 0
M  V30 14 C 5.2025 0.0 0.0 0
M  V30 15 C 7.8038 1.5016 0.0 0
M  V30 16 C 6.5032 -0.7567 0.0 0
M  V30 END ATOM
M  V30 BEGIN BOND
M  V30 1 2 1 2
M  V30 2 1 2 3
M  V30 3 1 2 4
M  V30 4 1 3 5
M  V30 5 1 4 6
M  V30 6 1 5 7
M  V30 7 1 6 8
M  V30 8 1 7 9
M  V30 9 1 7 10
M  V30 10 2 8 11
M  V30 11 1 8 12
M  V30 12 1 12 13
M  V30 13 1 12 14
M  V30 14 1 13 15
M  V30 15 1 14 16
M  V30 END BOND
M  V30 END CTAB
M  END
>  <Molecule Name>
N,N-Diethylsuccinamic acid, iso-butyl ester

>  <Activity Label>
0

>  <SMILES>
CCN(CC)C(CCC(OCC(C)C)=O)=O

>  <Molecular Formula>
C12H23NO3

>  <InChIKey>
SSHJPJMTMBFOMX-UHFFFAOYSA-N

>  <Repellency>
Inactive

>  <Reference DOI>
10.3390/toxics11100837

>  <Target Organism>
Not applied

$$$$
Compound 776
Actelion Java MolfileCreator 2.0

  0  0  0  0  0  0              0 V3000
M  V30 BEGIN CTAB
M  V30 COUNTS 17 16 0 0 0
M  V30 BEGIN ATOM
M  V30 1 S 0.0 0.0 0.0 0
M  V30 2 C 1.3004 0.7475 0.0 0
M  V30 3 C -1.3004 0.7475 0.0 0
M  V30 4 C 2.6009 0.0 0.0 0
M  V30 5 C -2.6009 0.0 0.0 0
M  V30 6 C 3.9014 0.7475 0.0 0
M  V30 7 C -3.9014 0.7475 0.0 0
M  V30 8 C 5.2018 0.0 0.0 0
M  V30 9 C -5.2018 0.0 0.0 0
M  V30 10 C 6.5023 0.7475 0.0 0
M  V30 11 C -6.5023 0.7475 0.0 0
M  V30 12 C 7.8028 0.0 0.0 0
M  V30 13 C -7.8028 0.0 0.0 0
M  V30 14 C 9.1032 0.7475 0.0 0
M  V30 15 C -9.1032 0.7475 0.0 0
M  V30 16 C 10.4037 0.0 0.0 0
M  V30 17 C -10.4037 0.0 0.0 0
M  V30 END ATOM
M  V30 BEGIN BOND
M  V30 1 1 1 2
M  V30 2 1 1 3
M  V30 3 1 2 4
M  V30 4 1 3 5
M  V30 5 1 4 6
M  V30 6 1 5 7
M  V30 7 1 6 8
M  V30 8 1 7 9
M  V30 9 1 8 10
M  V30 10 1 9 11
M  V30 11 1 10 12
M  V30 12 1 11 13
M  V30 13 1 12 14
M  V30 14 1 13 15
M  V30 15 1 14 16
M  V30 16 1 15 17
M  V30 END BOND
M  V30 END CTAB
M  END
>  <Molecule Name>
Dioctyl sulfide

>  <Activity Label>
0

>  <SMILES>
CCCCCCCCSCCCCCCCC

>  <Molecular Formula>
C16H34S

>  <InChIKey>
LOXRGHGHQYWXJK-UHFFFAOYSA-N

>  <Repellency>
Inactive

>  <Reference DOI>
10.3390/toxics11100837

>  <Target Organism>
Not applied

$$$$
Compound 777
Actelion Java MolfileCreator 2.0

  0  0  0  0  0  0              0 V3000
M  V30 BEGIN CTAB
M  V30 COUNTS 17 16 0 0 0
M  V30 BEGIN ATOM
M  V30 1 Br 0.0 0.0 0.0 0
M  V30 2 C 1.3004 0.7475 0.0 0
M  V30 3 C 2.6009 0.0 0.0 0
M  V30 4 C 3.9014 0.7475 0.0 0
M  V30 5 C 5.2018 0.0 0.0 0
M  V30 6 C 6.5023 0.7475 0.0 0
M  V30 7 C 7.8028 0.0 0.0 0
M  V30 8 C 9.1032 0.7475 0.0 0
M  V30 9 C 10.4037 0.0 0.0 0
M  V30 10 C 11.7042 0.7475 0.0 0
M  V30 11 C 13.0047 0.0 0.0 0
M  V30 12 C 14.3051 0.7475 0.0 0
M  V30 13 C 15.6056 0.0 0.0 0
M  V30 14 C 16.9061 0.7475 0.0 0
M  V30 15 C 18.2065 0.0 0.0 0
M  V30 16 C 19.507 0.7475 0.0 0
M  V30 17 C 20.8075 0.0 0.0 0
M  V30 END ATOM
M  V30 BEGIN BOND
M  V30 1 1 1 2
M  V30 2 1 2 3
M  V30 3 1 3 4
M  V30 4 1 4 5
M  V30 5 1 5 6
M  V30 6 1 6 7
M  V30 7 1 7 8
M  V30 8 1 8 9
M  V30 9 1 9 10
M  V30 10 1 10 11
M  V30 11 1 11 12
M  V30 12 1 12 13
M  V30 13 1 13 14
M  V30 14 1 14 15
M  V30 15 1 15 16
M  V30 16 1 16 17
M  V30 END BOND
M  V30 END CTAB
M  END
>  <Molecule Name>
Cetyl bromide

>  <Activity Label>
0

>  <SMILES>
CCCCCCCCCCCCCCCCBr

>  <Molecular Formula>
C16H33Br

>  <InChIKey>
HNTGIJLWHDPAFN-UHFFFAOYSA-N

>  <Repellency>
Inactive

>  <Reference DOI>
10.3390/toxics11100837

>  <Target Organism>
Not applied

$$$$
Compound 778
Actelion Java MolfileCreator 2.0

  0  0  0  0  0  0              0 V3000
M  V30 BEGIN CTAB
M  V30 COUNTS 17 16 0 0 0
M  V30 BEGIN ATOM
M  V30 1 O 0.0 0.0 0.0 0
M  V30 2 C 0.0 -1.5281 0.0 0
M  V30 3 O 1.3838 -2.1057 0.0 0
M  V30 4 C -1.3236 -2.2862 0.0 0
M  V30 5 C 2.6472 -1.5281 0.0 0
M  V30 6 C 0.0 -3.0563 0.0 0
M  V30 7 C -2.6472 -1.5281 0.0 0
M  V30 8 C -1.3236 -3.8144 0.0 0
M  V30 9 O 1.2033 -2.6593 0.0 0
M  V30 10 O 0.0 -4.5845 0.0 0
M  V30 11 C -3.9709 -2.2862 0.0 0
M  V30 12 C -2.6472 -4.5725 0.0 0
M  V30 13 C -1.3236 -5.3426 0.0 0
M  V30 14 C -5.2945 -1.5281 0.0 0
M  V30 15 C -6.6181 -2.2862 0.0 0
M  V30 16 C -7.9418 -1.5281 0.0 0
M  V30 17 C -9.2654 -2.2862 0.0 0
M  V30 END ATOM
M  V30 BEGIN BOND
M  V30 1 2 1 2
M  V30 2 1 2 3
M  V30 3 1 2 4
M  V30 4 1 3 5
M  V30 5 1 4 6
M  V30 6 1 4 7
M  V30 7 1 4 8
M  V30 8 2 6 9
M  V30 9 1 6 10
M  V30 10 2 7 11 CFG=2
M  V30 11 1 8 12
M  V30 12 1 10 13
M  V30 13 1 11 14
M  V30 14 1 14 15
M  V30 15 1 15 16
M  V30 16 1 16 17
M  V30 END BOND
M  V30 END CTAB
M  END
>  <Molecule Name>
(1-Hexenyl)ethylmalonic acid dimethyl ester

>  <Activity Label>
0

>  <SMILES>
CCCCC=CC(CC)(C(OC)=O)C(OC)=O

>  <Molecular Formula>
C13H22O4

>  <InChIKey>
MJUHREZYYLZMJL-UHFFFAOYSA-N

>  <Repellency>
Inactive

>  <Reference DOI>
10.3390/toxics11100837

>  <Target Organism>
Not applied

$$$$
Compound 779
Actelion Java MolfileCreator 2.0

  0  0  0  0  0  0              0 V3000
M  V30 BEGIN CTAB
M  V30 COUNTS 17 16 0 0 0
M  V30 BEGIN ATOM
M  V30 1 O 0.0 0.0 0.0 0
M  V30 2 C -0.3466 -1.3625 0.0 0
M  V30 3 O 0.9681 -2.1156 0.0 0
M  V30 4 C -1.6614 -2.1156 0.0 0
M  V30 5 C 2.2829 -1.3625 0.0 0
M  V30 6 C -2.9761 -1.3625 0.0 0
M  V30 7 C -1.6614 -3.6335 0.0 0
M  V30 8 C -1.6614 -0.5976 0.0 0
M  V30 9 C 3.5977 -2.1156 0.0 0
M  V30 10 O -2.9761 0.1553 0.0 0
M  V30 11 O -4.2909 -2.1156 0.0 0
M  V30 12 C -2.9761 -4.3985 0.0 0
M  V30 13 C -0.5259 0.239 0.0 0
M  V30 14 C -5.6057 -1.3506 0.0 0
M  V30 15 C -2.9761 -5.9165 0.0 0
M  V30 16 C -0.3466 1.6853 0.0 0
M  V30 17 C -6.9205 -2.1156 0.0 0
M  V30 END ATOM
M  V30 BEGIN BOND
M  V30 1 2 1 2
M  V30 2 1 2 3
M  V30 3 1 2 4
M  V30 4 1 3 5
M  V30 5 1 4 6
M  V30 6 1 4 7
M  V30 7 1 4 8
M  V30 8 1 5 9
M  V30 9 2 6 10
M  V30 10 1 6 11
M  V30 11 1 7 12
M  V30 12 1 8 13
M  V30 13 1 11 14
M  V30 14 2 12 15
M  V30 15 2 13 16
M  V30 16 1 14 17
M  V30 END BOND
M  V30 END CTAB
M  END
>  <Molecule Name>
Diallylmalonic acid, diethyl ester

>  <Activity Label>
0

>  <SMILES>
CCOC(C(CC=C)(CC=C)C(OCC)=O)=O

>  <Molecular Formula>
C13H20O4

>  <InChIKey>
LYUUVYQGUMRKOV-UHFFFAOYSA-N

>  <Repellency>
Inactive

>  <Reference DOI>
10.3390/toxics11100837

>  <Target Organism>
Not applied

$$$$
Compound 780
Actelion Java MolfileCreator 2.0

  0  0  0  0  0  0              0 V3000
M  V30 BEGIN CTAB
M  V30 COUNTS 17 16 0 0 0
M  V30 BEGIN ATOM
M  V30 1 O 0.0 0.0 0.0 0
M  V30 2 C -1.3119 0.7513 0.0 0
M  V30 3 O -1.3119 2.266 0.0 0
M  V30 4 C -2.6238 0.0 0.0 0
M  V30 5 C 0.0 3.0294 0.0 0
M  V30 6 C -3.9358 0.7513 0.0 0
M  V30 7 C -2.6238 -1.5147 0.0 0
M  V30 8 C -2.6238 1.5147 0.0 0
M  V30 9 C 0.0 4.5441 0.0 0
M  V30 10 O -4.1028 2.1706 0.0 0
M  V30 11 O -5.2477 0.0 0.0 0
M  V30 12 C -3.9358 -2.278 0.0 0
M  V30 13 C -3.6138 2.4569 0.0 0
M  V30 14 C -6.5597 0.7633 0.0 0
M  V30 15 C -3.9358 -3.7927 0.0 0
M  V30 16 C -5.2477 -1.5266 0.0 0
M  V30 17 C -7.8716 0.0 0.0 0
M  V30 END ATOM
M  V30 BEGIN BOND
M  V30 1 2 1 2
M  V30 2 1 2 3
M  V30 3 1 2 4
M  V30 4 1 3 5
M  V30 5 1 4 6
M  V30 6 1 4 7
M  V30 7 1 4 8
M  V30 8 1 5 9
M  V30 9 2 6 10
M  V30 10 1 6 11
M  V30 11 2 7 12
M  V30 12 1 8 13
M  V30 13 1 11 14
M  V30 14 1 12 15
M  V30 15 1 12 16
M  V30 16 1 14 17
M  V30 END BOND
M  V30 END CTAB
M  END
>  <Molecule Name>
(1-iso-Butenyl)ethylmalonic acid, diethyl ester

>  <Activity Label>
0

>  <SMILES>
CCC(C=C(C)C)(C(OCC)=O)C(OCC)=O

>  <Molecular Formula>
C13H22O4

>  <InChIKey>
BGWAMLPAYCKDDR-UHFFFAOYSA-N

>  <Repellency>
Inactive

>  <Reference DOI>
10.3390/toxics11100837

>  <Target Organism>
Not applied

$$$$
Compound 781
Actelion Java MolfileCreator 2.0

  0  0  0  0  0  0              0 V3000
M  V30 BEGIN CTAB
M  V30 COUNTS 17 16 0 0 0
M  V30 BEGIN ATOM
M  V30 1 O 0.0 0.0 0.0 0
M  V30 2 C 1.1299 -0.8206 0.0 0
M  V30 3 O 2.4382 -0.0594 0.0 0
M  V30 4 C 1.1299 -2.3311 0.0 0
M  V30 5 C 3.7465 -0.8206 0.0 0
M  V30 6 C -0.1784 -1.5818 0.0 0
M  V30 7 C 2.4382 -1.5818 0.0 0
M  V30 8 C 1.1299 -3.8416 0.0 0
M  V30 9 C 5.0548 -0.0594 0.0 0
M  V30 10 O -0.5352 -0.1903 0.0 0
M  V30 11 O -1.4867 -2.343 0.0 0
M  V30 12 C 3.7465 -2.343 0.0 0
M  V30 13 C -0.1784 -4.6028 0.0 0
M  V30 14 C -2.795 -1.5818 0.0 0
M  V30 15 C 5.0548 -1.5937 0.0 0
M  V30 16 C -4.1033 -2.343 0.0 0
M  V30 17 C 6.3631 -2.3549 0.0 0
M  V30 END ATOM
M  V30 BEGIN BOND
M  V30 1 2 1 2
M  V30 2 1 2 3
M  V30 3 1 2 4
M  V30 4 1 3 5
M  V30 5 1 4 6
M  V30 6 1 4 7
M  V30 7 1 4 8
M  V30 8 1 5 9
M  V30 9 2 6 10
M  V30 10 1 6 11
M  V30 11 2 7 12 CFG=2
M  V30 12 1 8 13
M  V30 13 1 11 14
M  V30 14 1 12 15
M  V30 15 1 14 16
M  V30 16 1 15 17
M  V30 END BOND
M  V30 END CTAB
M  END
>  <Molecule Name>
(1-Butenyl)ethylmalonic acid, diethyl ester

>  <Activity Label>
0

>  <SMILES>
CCC(C=CCC)(C(OCC)=O)C(OCC)=O

>  <Molecular Formula>
C13H22O4

>  <InChIKey>
LXXABLYRTVFGIJ-UHFFFAOYSA-N

>  <Repellency>
Inactive

>  <Reference DOI>
10.3390/toxics11100837

>  <Target Organism>
Not applied

$$$$
Compound 782
Actelion Java MolfileCreator 2.0

  0  0  0  0  0  0              0 V3000
M  V30 BEGIN CTAB
M  V30 COUNTS 17 16 0 0 0
M  V30 BEGIN ATOM
M  V30 1 O 0.0 0.0 0.0 0
M  V30 2 C -0.3453 -1.3576 0.0 0
M  V30 3 O 0.9646 -2.1197 0.0 0
M  V30 4 C -1.6553 -2.1197 0.0 0
M  V30 5 C 2.2746 -1.3695 0.0 0
M  V30 6 C -1.6553 -0.6073 0.0 0
M  V30 7 C -2.9653 -1.3695 0.0 0
M  V30 8 C -1.6553 -3.6322 0.0 0
M  V30 9 C 3.5845 -2.1316 0.0 0
M  V30 10 O -0.5239 0.2262 0.0 0
M  V30 11 O -2.9653 0.1548 0.0 0
M  V30 12 C -4.2752 -2.1316 0.0 0
M  V30 13 C -2.9653 -4.3943 0.0 0
M  V30 14 C -4.2752 -0.6073 0.0 0
M  V30 15 C -5.5852 -1.3814 0.0 0
M  V30 16 C -5.5852 0.1548 0.0 0
M  V30 17 C -6.8952 -2.1436 0.0 0
M  V30 END ATOM
M  V30 BEGIN BOND
M  V30 1 2 1 2
M  V30 2 1 2 3
M  V30 3 1 2 4
M  V30 4 1 3 5
M  V30 5 1 4 6
M  V30 6 1 4 7
M  V30 7 1 4 8
M  V30 8 1 5 9
M  V30 9 2 6 10
M  V30 10 1 6 11
M  V30 11 1 7 12
M  V30 12 1 8 13
M  V30 13 1 11 14
M  V30 14 2 12 15 CFG=2
M  V30 15 1 14 16
M  V30 16 1 15 17
M  V30 END BOND
M  V30 END CTAB
M  END
>  <Molecule Name>
Ethylcrotylmalonic acid, diethyl ester

>  <Activity Label>
0

>  <SMILES>
CCC(CC=CC)(C(OCC)=O)C(OCC)=O

>  <Molecular Formula>
C13H22O4

>  <InChIKey>
GYNGJJPJXJTQPG-UHFFFAOYSA-N

>  <Repellency>
Inactive

>  <Reference DOI>
10.3390/toxics11100837

>  <Target Organism>
Not applied

$$$$
Compound 783
Actelion Java MolfileCreator 2.0

  0  0  0  0  0  0              0 V3000
M  V30 BEGIN CTAB
M  V30 COUNTS 17 16 0 0 0
M  V30 BEGIN ATOM
M  V30 1 O 0.0 0.0 0.0 0
M  V30 2 C -1.2991 0.744 0.0 0
M  V30 3 O -2.5982 -0.0118 0.0 0
M  V30 4 C -1.2991 2.2439 0.0 0
M  V30 5 C -3.8973 0.7322 0.0 0
M  V30 6 C -2.5982 2.9879 0.0 0
M  V30 7 C 0.0 2.9879 0.0 0
M  V30 8 C -1.2991 3.7437 0.0 0
M  V30 9 C -5.1964 -0.0236 0.0 0
M  V30 10 O -2.5982 4.4878 0.0 0
M  V30 11 O -3.8973 2.2321 0.0 0
M  V30 12 C 1.2991 2.2321 0.0 0
M  V30 13 C -5.1964 2.9761 0.0 0
M  V30 14 C 2.5982 2.9761 0.0 0
M  V30 15 C -6.4955 2.2202 0.0 0
M  V30 16 C 3.8973 2.2202 0.0 0
M  V30 17 C 2.5982 4.476 0.0 0
M  V30 END ATOM
M  V30 BEGIN BOND
M  V30 1 2 1 2
M  V30 2 1 2 3
M  V30 3 1 2 4
M  V30 4 1 3 5
M  V30 5 1 4 6
M  V30 6 1 4 7
M  V30 7 1 4 8
M  V30 8 1 5 9
M  V30 9 2 6 10
M  V30 10 1 6 11
M  V30 11 2 7 12 CFG=2
M  V30 12 1 11 13
M  V30 13 1 12 14
M  V30 14 1 13 15
M  V30 15 1 14 16
M  V30 16 1 14 17
M  V30 END BOND
M  V30 END CTAB
M  END
>  <Molecule Name>
(1-iso-Pentenyl)methylmalonic acid, diethyl ester

>  <Activity Label>
0

>  <SMILES>
CCOC(C(C)(C=CC(C)C)C(OCC)=O)=O

>  <Molecular Formula>
C13H22O4

>  <InChIKey>
ACWSITKGBGYMAF-UHFFFAOYSA-N

>  <Repellency>
Inactive

>  <Reference DOI>
10.3390/toxics11100837

>  <Target Organism>
Not applied

$$$$
Compound 784
Actelion Java MolfileCreator 2.0

  0  0  0  0  0  0              0 V3000
M  V30 BEGIN CTAB
M  V30 COUNTS 17 16 0 0 0
M  V30 BEGIN ATOM
M  V30 1 O 0.0 0.0 0.0 0
M  V30 2 C 0.0 -1.5024 0.0 0
M  V30 3 O 1.3013 -2.2477 0.0 0
M  V30 4 C -1.3013 -2.2477 0.0 0
M  V30 5 C 2.6026 -1.5024 0.0 0
M  V30 6 C -2.6026 -1.5024 0.0 0
M  V30 7 C 3.9039 -2.2477 0.0 0
M  V30 8 C -3.9039 -2.2477 0.0 0
M  V30 9 C -5.2053 -1.5024 0.0 0
M  V30 10 C -6.5066 -2.2477 0.0 0
M  V30 11 C -7.8079 -1.5024 0.0 0
M  V30 12 C -9.1093 -2.2477 0.0 0
M  V30 13 C -10.4106 -1.5024 0.0 0
M  V30 14 O -10.4106 0.0 0.0 0
M  V30 15 O -11.7119 -2.2477 0.0 0
M  V30 16 C -13.0133 -1.5024 0.0 0
M  V30 17 C -14.3146 -2.2477 0.0 0
M  V30 END ATOM
M  V30 BEGIN BOND
M  V30 1 2 1 2
M  V30 2 1 2 3
M  V30 3 1 2 4
M  V30 4 1 3 5
M  V30 5 1 4 6
M  V30 6 1 5 7
M  V30 7 1 6 8
M  V30 8 1 8 9
M  V30 9 1 9 10
M  V30 10 1 10 11
M  V30 11 1 11 12
M  V30 12 1 12 13
M  V30 13 2 13 14
M  V30 14 1 13 15
M  V30 15 1 15 16
M  V30 16 1 16 17
M  V30 END BOND
M  V30 END CTAB
M  END
>  <Molecule Name>
Azelaic acid, diethyl ester

>  <Activity Label>
0

>  <SMILES>
CCOC(CCCCCCCC(OCC)=O)=O

>  <Molecular Formula>
C13H24O4

>  <InChIKey>
CQMYCPZZIPXILQ-UHFFFAOYSA-N

>  <Repellency>
Inactive

>  <Reference DOI>
10.3390/toxics11100837

>  <Target Organism>
Not applied

$$$$
Compound 785
Actelion Java MolfileCreator 2.0

  0  0  0  0  0  0              0 V3000
M  V30 BEGIN CTAB
M  V30 COUNTS 17 16 0 0 0
M  V30 BEGIN ATOM
M  V30 1 O 0.0 0.0 0.0 0
M  V30 2 C 0.0 -1.502 0.0 0
M  V30 3 O 1.301 -2.2472 0.0 0
M  V30 4 C -1.301 -2.2472 0.0 0
M  V30 5 C 2.602 -1.502 0.0 0
M  V30 6 C -2.602 -1.502 0.0 0
M  V30 7 C 3.903 -2.2472 0.0 0
M  V30 8 O -2.602 0.0 0.0 0
M  V30 9 O -3.903 -2.2472 0.0 0
M  V30 10 C 5.2041 -1.502 0.0 0
M  V30 11 C -5.2041 -1.502 0.0 0
M  V30 12 C 6.5051 -2.2472 0.0 0
M  V30 13 C 5.2041 0.0 0.0 0
M  V30 14 C -6.5051 -2.2472 0.0 0
M  V30 15 C -7.8061 -1.502 0.0 0
M  V30 16 C -7.8061 0.0 0.0 0
M  V30 17 C -9.1072 -2.2472 0.0 0
M  V30 END ATOM
M  V30 BEGIN BOND
M  V30 1 2 1 2
M  V30 2 1 2 3
M  V30 3 1 2 4
M  V30 4 1 3 5
M  V30 5 1 4 6
M  V30 6 1 5 7
M  V30 7 2 6 8
M  V30 8 1 6 9
M  V30 9 1 7 10
M  V30 10 1 9 11
M  V30 11 1 10 12
M  V30 12 1 10 13
M  V30 13 1 11 14
M  V30 14 1 14 15
M  V30 15 1 15 16
M  V30 16 1 15 17
M  V30 END BOND
M  V30 END CTAB
M  END
>  <Molecule Name>
Malonic acid, diiso-amyl ester

>  <Activity Label>
0

>  <SMILES>
CC(C)CCOC(CC(OCCC(C)C)=O)=O

>  <Molecular Formula>
C13H24O4

>  <InChIKey>
MZXKSEBRMIOIIE-UHFFFAOYSA-N

>  <Repellency>
Inactive

>  <Reference DOI>
10.3390/toxics11100837

>  <Target Organism>
Not applied

$$$$
Compound 786
Actelion Java MolfileCreator 2.0

  0  0  0  0  0  0              0 V3000
M  V30 BEGIN CTAB
M  V30 COUNTS 17 16 0 0 0
M  V30 BEGIN ATOM
M  V30 1 P 0.0 0.0 0.0 0
M  V30 2 O 0.0 1.5011 0.0 0
M  V30 3 O 1.3002 0.7446 0.0 0
M  V30 4 O 0.0 -1.5011 0.0 0
M  V30 5 O -1.3002 0.7446 0.0 0
M  V30 6 C 2.6004 0.0 0.0 0
M  V30 7 C -1.3002 -2.2576 0.0 0
M  V30 8 C -2.6004 0.0 0.0 0
M  V30 9 C 3.9007 0.7446 0.0 0
M  V30 10 C -1.3002 -3.7588 0.0 0
M  V30 11 C -3.9007 0.7446 0.0 0
M  V30 12 C 5.2009 0.0 0.0 0
M  V30 13 C 3.9007 2.2458 0.0 0
M  V30 14 C -2.6004 -4.5153 0.0 0
M  V30 15 C 0.0 -4.5035 0.0 0
M  V30 16 C -3.9007 2.2458 0.0 0
M  V30 17 C -5.2009 0.0 0.0 0
M  V30 END ATOM
M  V30 BEGIN BOND
M  V30 1 2 1 2
M  V30 2 1 1 3
M  V30 3 1 1 4
M  V30 4 1 1 5
M  V30 5 1 3 6
M  V30 6 1 4 7
M  V30 7 1 5 8
M  V30 8 1 6 9
M  V30 9 1 7 10
M  V30 10 1 8 11
M  V30 11 1 9 12
M  V30 12 1 9 13
M  V30 13 1 10 14
M  V30 14 1 10 15
M  V30 15 1 11 16
M  V30 16 1 11 17
M  V30 END BOND
M  V30 END CTAB
M  END
>  <Molecule Name>
Phosphoric acid, tri-iso-butyl ester

>  <Activity Label>
0

>  <SMILES>
CC(C)COP(OCC(C)C)(OCC(C)C)=O

>  <Molecular Formula>
C12H27O4P

>  <InChIKey>
HRKAMJBPFPHCSD-UHFFFAOYSA-N

>  <Repellency>
Inactive

>  <Reference DOI>
10.3390/toxics11100837

>  <Target Organism>
Not applied

$$$$
Compound 787
Actelion Java MolfileCreator 2.0

  0  0  0  0  0  0              0 V3000
M  V30 BEGIN CTAB
M  V30 COUNTS 17 16 0 0 0
M  V30 BEGIN ATOM
M  V30 1 O 0.0 0.0 0.0 0
M  V30 2 C 0.0 1.4997 0.0 0
M  V30 3 O 1.2989 2.2436 0.0 0
M  V30 4 C -1.2989 2.2554 0.0 0
M  V30 5 C 2.5979 1.4997 0.0 0
M  V30 6 C -2.5979 3.0112 0.0 0
M  V30 7 C 3.8968 2.2436 0.0 0
M  V30 8 C -3.8968 3.7669 0.0 0
M  V30 9 C 3.8968 3.7433 0.0 0
M  V30 10 C -5.1958 3.023 0.0 0
M  V30 11 C 3.8968 5.243 0.0 0
M  V30 12 C -6.4947 3.7787 0.0 0
M  V30 13 C 3.8968 6.7427 0.0 0
M  V30 14 C -7.7937 3.0348 0.0 0
M  V30 15 C 2.5979 7.4985 0.0 0
M  V30 16 C 2.5979 8.9982 0.0 0
M  V30 17 C 1.2989 9.7539 0.0 0
M  V30 END ATOM
M  V30 BEGIN BOND
M  V30 1 2 1 2
M  V30 2 1 2 3
M  V30 3 1 2 4
M  V30 4 1 3 5
M  V30 5 3 4 6
M  V30 6 1 5 7
M  V30 7 1 6 8
M  V30 8 1 7 9
M  V30 9 1 8 10
M  V30 10 3 9 11
M  V30 11 1 10 12
M  V30 12 1 11 13
M  V30 13 1 12 14
M  V30 14 1 13 15
M  V30 15 1 15 16
M  V30 16 1 16 17
M  V30 END BOND
M  V30 END CTAB
M  END
>  <Molecule Name>
2-Heptynoic acid, 3-octynyl ester

>  <Activity Label>
0

>  <SMILES>
CCCCC#CCCOC(C#CCCCC)=O

>  <Molecular Formula>
C15H22O2

>  <InChIKey>
KXLPXAUDQJPZKD-UHFFFAOYSA-N

>  <Repellency>
Inactive

>  <Reference DOI>
10.3390/toxics11100837

>  <Target Organism>
Not applied

$$$$
Compound 788
Actelion Java MolfileCreator 2.0

  0  0  0  0  0  0              0 V3000
M  V30 BEGIN CTAB
M  V30 COUNTS 17 16 0 0 0
M  V30 BEGIN ATOM
M  V30 1 O 0.0 0.0 0.0 0
M  V30 2 C 0.0 1.497 0.0 0
M  V30 3 O -1.2966 2.2515 0.0 0
M  V30 4 C 1.2966 2.2515 0.0 0
M  V30 5 C -2.5933 1.497 0.0 0
M  V30 6 C 2.5933 1.497 0.0 0
M  V30 7 C -3.89 2.2515 0.0 0
M  V30 8 C 3.89 2.2515 0.0 0
M  V30 9 C -5.1867 1.497 0.0 0
M  V30 10 C 5.1867 1.497 0.0 0
M  V30 11 C -6.4834 2.2515 0.0 0
M  V30 12 C 6.4834 2.2515 0.0 0
M  V30 13 C -7.7801 1.497 0.0 0
M  V30 14 C 7.7801 1.497 0.0 0
M  V30 15 C 9.0768 2.2515 0.0 0
M  V30 16 C 10.3735 1.497 0.0 0
M  V30 17 C 11.6702 2.2515 0.0 0
M  V30 END ATOM
M  V30 BEGIN BOND
M  V30 1 2 1 2
M  V30 2 1 2 3
M  V30 3 1 2 4
M  V30 4 1 3 5
M  V30 5 1 4 6
M  V30 6 1 5 7
M  V30 7 1 6 8
M  V30 8 1 7 9
M  V30 9 1 8 10
M  V30 10 1 9 11
M  V30 11 1 10 12
M  V30 12 1 11 13
M  V30 13 1 12 14
M  V30 14 1 14 15
M  V30 15 1 15 16
M  V30 16 1 16 17
M  V30 END BOND
M  V30 END CTAB
M  END
>  <Molecule Name>
Decanoic acid, amyl ester

>  <Activity Label>
0

>  <SMILES>
CCCCCCCCCC(OCCCCC)=O

>  <Molecular Formula>
C15H30O2

>  <InChIKey>
BGYFCELTJPRWBA-UHFFFAOYSA-N

>  <Repellency>
Inactive

>  <Reference DOI>
10.3390/toxics11100837

>  <Target Organism>
Not applied

$$$$
Compound 789
Actelion Java MolfileCreator 2.0

  0  0  0  0  0  0              0 V3000
M  V30 BEGIN CTAB
M  V30 COUNTS 17 16 0 0 0
M  V30 BEGIN ATOM
M  V30 1 O 0.0 0.0 0.0 0
M  V30 2 C 0.0 -1.4996 0.0 0
M  V30 3 O -1.2989 -2.2554 0.0 0
M  V30 4 C 1.2989 -2.2554 0.0 0
M  V30 5 C -2.5978 -1.5114 0.0 0
M  V30 6 C 2.5978 -1.5114 0.0 0
M  V30 7 C -3.8967 -2.2672 0.0 0
M  V30 8 C 3.8967 -2.2672 0.0 0
M  V30 9 C -5.1956 -1.5232 0.0 0
M  V30 10 C 5.1956 -1.5232 0.0 0
M  V30 11 C -6.4946 -2.279 0.0 0
M  V30 12 C 6.4946 -2.279 0.0 0
M  V30 13 C 7.7935 -1.535 0.0 0
M  V30 14 C 9.0924 -2.2908 0.0 0
M  V30 15 C 10.3913 -1.5468 0.0 0
M  V30 16 C 11.6903 -2.3026 0.0 0
M  V30 17 C 12.9892 -1.5587 0.0 0
M  V30 END ATOM
M  V30 BEGIN BOND
M  V30 1 2 1 2
M  V30 2 1 2 3
M  V30 3 1 2 4
M  V30 4 1 3 5
M  V30 5 1 4 6
M  V30 6 1 5 7
M  V30 7 1 6 8
M  V30 8 1 7 9
M  V30 9 1 8 10
M  V30 10 1 9 11
M  V30 11 1 10 12
M  V30 12 1 12 13
M  V30 13 1 13 14
M  V30 14 1 14 15
M  V30 15 1 15 16
M  V30 16 2 16 17
M  V30 END BOND
M  V30 END CTAB
M  END
>  <Molecule Name>
10-Hendecenoic acid, n-butyl ester

>  <Activity Label>
0

>  <SMILES>
CCCCOC(CCCCCCCCC=C)=O

>  <Molecular Formula>
C15H28O2

>  <InChIKey>
GRAORJFMGCQWRN-UHFFFAOYSA-N

>  <Repellency>
Inactive

>  <Reference DOI>
10.3390/toxics11100837

>  <Target Organism>
Not applied

$$$$
Compound 790
Actelion Java MolfileCreator 2.0

  0  0  0  0  0  0              0 V3000
M  V30 BEGIN CTAB
M  V30 COUNTS 17 16 0 0 0
M  V30 BEGIN ATOM
M  V30 1 O 0.0 0.0 0.0 0
M  V30 2 C 0.0 1.5 0.0 0
M  V30 3 O -1.2992 2.2441 0.0 0
M  V30 4 C 1.2992 2.2441 0.0 0
M  V30 5 C -2.5984 1.4882 0.0 0
M  V30 6 C 2.5984 1.4882 0.0 0
M  V30 7 C -3.8977 2.2323 0.0 0
M  V30 8 C 3.8977 2.2323 0.0 0
M  V30 9 C -5.1969 1.4764 0.0 0
M  V30 10 C 5.1969 1.4764 0.0 0
M  V30 11 C 6.4962 2.2205 0.0 0
M  V30 12 C 7.7954 1.4646 0.0 0
M  V30 13 C 9.0946 2.2087 0.0 0
M  V30 14 C 10.3939 1.4527 0.0 0
M  V30 15 C 11.6931 2.1969 0.0 0
M  V30 16 C 12.9924 1.4409 0.0 0
M  V30 17 C 14.2916 2.185 0.0 0
M  V30 END ATOM
M  V30 BEGIN BOND
M  V30 1 2 1 2
M  V30 2 1 2 3
M  V30 3 1 2 4
M  V30 4 1 3 5
M  V30 5 1 4 6
M  V30 6 1 5 7
M  V30 7 1 6 8
M  V30 8 2 7 9
M  V30 9 1 8 10
M  V30 10 1 10 11
M  V30 11 1 11 12
M  V30 12 1 12 13
M  V30 13 1 13 14
M  V30 14 1 14 15
M  V30 15 1 15 16
M  V30 16 1 16 17
M  V30 END BOND
M  V30 END CTAB
M  END
>  <Molecule Name>
Lauric acid, allyl ester

>  <Activity Label>
0

>  <SMILES>
CCCCCCCCCCCC(OCC=C)=O

>  <Molecular Formula>
C15H28O2

>  <InChIKey>
ZQMAPKVSTSACQB-UHFFFAOYSA-N

>  <Repellency>
Inactive

>  <Reference DOI>
10.3390/toxics11100837

>  <Target Organism>
Not applied

$$$$
Compound 791
Actelion Java MolfileCreator 2.0

  0  0  0  0  0  0              0 V3000
M  V30 BEGIN CTAB
M  V30 COUNTS 17 16 0 0 0
M  V30 BEGIN ATOM
M  V30 1 O 0.0 0.0 0.0 0
M  V30 2 C 0.0 -1.5026 0.0 0
M  V30 3 O -1.3014 -2.248 0.0 0
M  V30 4 C 1.3014 -2.248 0.0 0
M  V30 5 C -2.6029 -1.5026 0.0 0
M  V30 6 C 2.6029 -1.5026 0.0 0
M  V30 7 C -3.9044 -2.248 0.0 0
M  V30 8 C -5.2059 -1.5026 0.0 0
M  V30 9 C -6.5074 -2.248 0.0 0
M  V30 10 C -7.8089 -1.5026 0.0 0
M  V30 11 C -9.1103 -2.248 0.0 0
M  V30 12 C -10.4118 -1.5026 0.0 0
M  V30 13 C -11.7133 -2.248 0.0 0
M  V30 14 C -13.0148 -1.5026 0.0 0
M  V30 15 C -14.3163 -2.248 0.0 0
M  V30 16 C -15.6178 -1.5026 0.0 0
M  V30 17 C -16.9192 -2.248 0.0 0
M  V30 END ATOM
M  V30 BEGIN BOND
M  V30 1 2 1 2
M  V30 2 1 2 3
M  V30 3 1 2 4
M  V30 4 1 3 5
M  V30 5 2 4 6
M  V30 6 1 5 7
M  V30 7 1 7 8
M  V30 8 1 8 9
M  V30 9 1 9 10
M  V30 10 1 10 11
M  V30 11 1 11 12
M  V30 12 1 12 13
M  V30 13 1 13 14
M  V30 14 1 14 15
M  V30 15 1 15 16
M  V30 16 1 16 17
M  V30 END BOND
M  V30 END CTAB
M  END
>  <Molecule Name>
Acrylic acid, lauryl ester

>  <Activity Label>
0

>  <SMILES>
CCCCCCCCCCCCOC(C=C)=O

>  <Molecular Formula>
C15H28O2

>  <InChIKey>
PBOSTUDLECTMNL-UHFFFAOYSA-N

>  <Repellency>
Inactive

>  <Reference DOI>
10.3390/toxics11100837

>  <Target Organism>
Not applied

$$$$
Compound 792
Actelion Java MolfileCreator 2.0

  0  0  0  0  0  0              0 V3000
M  V30 BEGIN CTAB
M  V30 COUNTS 17 16 0 0 0
M  V30 BEGIN ATOM
M  V30 1 O 0.0 0.0 0.0 0
M  V30 2 C 0.0 -1.5026 0.0 0
M  V30 3 O -1.3014 -2.248 0.0 0
M  V30 4 C 1.3014 -2.248 0.0 0
M  V30 5 C -2.6029 -1.5026 0.0 0
M  V30 6 C 2.6029 -1.5026 0.0 0
M  V30 7 C -3.9044 -2.248 0.0 0
M  V30 8 C -5.2059 -1.5026 0.0 0
M  V30 9 C -6.5074 -2.248 0.0 0
M  V30 10 C -7.8089 -1.5026 0.0 0
M  V30 11 C -9.1103 -2.248 0.0 0
M  V30 12 C -10.4118 -1.5026 0.0 0
M  V30 13 C -11.7133 -2.248 0.0 0
M  V30 14 C -13.0148 -1.5026 0.0 0
M  V30 15 C -14.3163 -2.248 0.0 0
M  V30 16 C -15.6178 -1.5026 0.0 0
M  V30 17 C -16.9192 -2.248 0.0 0
M  V30 END ATOM
M  V30 BEGIN BOND
M  V30 1 2 1 2
M  V30 2 1 2 3
M  V30 3 1 2 4
M  V30 4 1 3 5
M  V30 5 1 4 6
M  V30 6 1 5 7
M  V30 7 1 7 8
M  V30 8 1 8 9
M  V30 9 1 9 10
M  V30 10 1 10 11
M  V30 11 1 11 12
M  V30 12 1 12 13
M  V30 13 1 13 14
M  V30 14 1 14 15
M  V30 15 1 15 16
M  V30 16 1 16 17
M  V30 END BOND
M  V30 END CTAB
M  END
>  <Molecule Name>
Propionic acid, lauryl ester

>  <Activity Label>
0

>  <SMILES>
CCCCCCCCCCCCOC(CC)=O

>  <Molecular Formula>
C15H30O2

>  <InChIKey>
FVGJPCFYGPKBKJ-UHFFFAOYSA-N

>  <Repellency>
Inactive

>  <Reference DOI>
10.3390/toxics11100837

>  <Target Organism>
Not applied

$$$$
Compound 793
Actelion Java MolfileCreator 2.0

  0  0  0  0  0  0              0 V3000
M  V30 BEGIN CTAB
M  V30 COUNTS 17 16 0 0 0
M  V30 BEGIN ATOM
M  V30 1 O 0.0 0.0 0.0 0
M  V30 2 C 0.0 1.5 0.0 0
M  V30 3 O -1.2992 2.2441 0.0 0
M  V30 4 C 1.2992 2.2441 0.0 0
M  V30 5 C -2.5984 1.4882 0.0 0
M  V30 6 C 2.5984 1.4882 0.0 0
M  V30 7 C 3.8977 2.2323 0.0 0
M  V30 8 C 5.1969 1.4764 0.0 0
M  V30 9 C 6.4962 2.2205 0.0 0
M  V30 10 C 7.7954 1.4646 0.0 0
M  V30 11 C 9.0946 2.2087 0.0 0
M  V30 12 C 10.3939 1.4527 0.0 0
M  V30 13 C 11.6931 2.1969 0.0 0
M  V30 14 C 12.9924 1.4409 0.0 0
M  V30 15 C 14.2916 2.185 0.0 0
M  V30 16 C 15.5909 1.4291 0.0 0
M  V30 17 C 16.8901 2.1732 0.0 0
M  V30 END ATOM
M  V30 BEGIN BOND
M  V30 1 2 1 2
M  V30 2 1 2 3
M  V30 3 1 2 4
M  V30 4 1 3 5
M  V30 5 1 4 6
M  V30 6 1 6 7
M  V30 7 1 7 8
M  V30 8 1 8 9
M  V30 9 1 9 10
M  V30 10 1 10 11
M  V30 11 1 11 12
M  V30 12 1 12 13
M  V30 13 1 13 14
M  V30 14 1 14 15
M  V30 15 1 15 16
M  V30 16 1 16 17
M  V30 END BOND
M  V30 END CTAB
M  END
>  <Molecule Name>
Myristic acid, methyl ester

>  <Activity Label>
0

>  <SMILES>
CCCCCCCCCCCCCC(OC)=O

>  <Molecular Formula>
C15H30O2

>  <InChIKey>
ZAZKJZBWRNNLDS-UHFFFAOYSA-N

>  <Repellency>
Inactive

>  <Reference DOI>
10.3390/toxics11100837

>  <Target Organism>
Not applied

$$$$
Compound 794
Actelion Java MolfileCreator 2.0

  0  0  0  0  0  0              0 V3000
M  V30 BEGIN CTAB
M  V30 COUNTS 17 16 0 0 0
M  V30 BEGIN ATOM
M  V30 1 Cl 0.0 0.0 0.0 0
M  V30 2 C 1.2992 0.7441 0.0 0
M  V30 3 C 2.5984 -0.0118 0.0 0
M  V30 4 O 3.8977 0.7323 0.0 0
M  V30 5 C 5.1969 -0.0236 0.0 0
M  V30 6 O 5.1969 -1.5236 0.0 0
M  V30 7 C 6.4962 0.7204 0.0 0
M  V30 8 C 7.7954 -0.0354 0.0 0
M  V30 9 C 9.0946 0.7086 0.0 0
M  V30 10 C 10.3939 -0.0472 0.0 0
M  V30 11 C 11.6931 0.6968 0.0 0
M  V30 12 C 12.9924 -0.059 0.0 0
M  V30 13 C 14.2916 0.685 0.0 0
M  V30 14 C 15.5909 -0.0708 0.0 0
M  V30 15 C 16.8901 0.6732 0.0 0
M  V30 16 C 18.1893 -0.0826 0.0 0
M  V30 17 C 19.4886 0.6614 0.0 0
M  V30 END ATOM
M  V30 BEGIN BOND
M  V30 1 1 1 2
M  V30 2 1 2 3
M  V30 3 1 3 4
M  V30 4 1 4 5
M  V30 5 2 5 6
M  V30 6 1 5 7
M  V30 7 1 7 8
M  V30 8 1 8 9
M  V30 9 1 9 10
M  V30 10 1 10 11
M  V30 11 1 11 12
M  V30 12 1 12 13
M  V30 13 1 13 14
M  V30 14 1 14 15
M  V30 15 1 15 16
M  V30 16 1 16 17
M  V30 END BOND
M  V30 END CTAB
M  END
>  <Molecule Name>
Lauric acid, chloroethyl ester

>  <Activity Label>
0

>  <SMILES>
CCCCCCCCCCCC(OCCCl)=O

>  <Molecular Formula>
C14H27O2Cl

>  <InChIKey>
PPRUSMUBWUQYRY-UHFFFAOYSA-N

>  <Repellency>
Inactive

>  <Reference DOI>
10.3390/toxics11100837

>  <Target Organism>
Not applied

$$$$
Compound 795
Actelion Java MolfileCreator 2.0

  0  0  0  0  0  0              0 V3000
M  V30 BEGIN CTAB
M  V30 COUNTS 17 16 0 0 0
M  V30 BEGIN ATOM
M  V30 1 O 0.0 0.0 0.0 0
M  V30 2 C 1.2994 0.7442 0.0 0
M  V30 3 O 2.5988 0.0 0.0 0
M  V30 4 C 1.2994 2.2444 0.0 0
M  V30 5 C 2.5988 -1.5002 0.0 0
M  V30 6 C 0.0 2.9886 0.0 0
M  V30 7 C 2.5988 2.9886 0.0 0
M  V30 8 C 3.8982 -2.2562 0.0 0
M  V30 9 O 0.0 4.4889 0.0 0
M  V30 10 O -1.2994 2.2326 0.0 0
M  V30 11 C 3.8982 2.2326 0.0 0
M  V30 12 C -2.5988 2.9768 0.0 0
M  V30 13 C 5.1977 2.9768 0.0 0
M  V30 14 C -3.8982 2.2208 0.0 0
M  V30 15 O 5.1977 4.4771 0.0 0
M  V30 16 O 6.4971 2.2208 0.0 0
M  V30 17 C 7.7965 2.965 0.0 0
M  V30 END ATOM
M  V30 BEGIN BOND
M  V30 1 2 1 2
M  V30 2 1 2 3
M  V30 3 1 2 4
M  V30 4 1 3 5
M  V30 5 1 4 6
M  V30 6 1 4 7
M  V30 7 1 5 8
M  V30 8 2 6 9
M  V30 9 1 6 10
M  V30 10 1 7 11
M  V30 11 1 10 12
M  V30 12 1 11 13
M  V30 13 1 12 14
M  V30 14 2 13 15
M  V30 15 1 13 16
M  V30 16 1 16 17
M  V30 END BOND
M  V30 END CTAB
M  END
>  <Molecule Name>
3-Carbomethoxypropane-1,1-dicarboxylic acid, diethyl ester

>  <Activity Label>
0

>  <SMILES>
CCOC(C(CCC(OC)=O)C(OCC)=O)=O

>  <Molecular Formula>
C11H18O6

>  <InChIKey>
HRDIKQFHFOTXDL-UHFFFAOYSA-N

>  <Repellency>
Inactive

>  <Reference DOI>
10.3390/toxics11100837

>  <Target Organism>
Not applied

$$$$
Compound 796
Actelion Java MolfileCreator 2.0

  0  0  0  0  0  0              0 V3000
M  V30 BEGIN CTAB
M  V30 COUNTS 17 16 0 0 0
M  V30 BEGIN ATOM
M  V30 1 O 0.0 0.0 0.0 0
M  V30 2 C 1.2992 0.7441 0.0 0
M  V30 3 O 2.5985 0.0 0.0 0
M  V30 4 C 1.2992 2.2441 0.0 0 CFG=2
M  V30 5 C 2.5985 -1.5 0.0 0
M  V30 6 C 2.5985 2.9882 0.0 0
M  V30 7 C 0.0 2.9882 0.0 0
M  V30 8 C 3.8977 -2.2559 0.0 0
M  V30 9 O 2.5985 4.4883 0.0 0
M  V30 10 C 3.8977 2.2323 0.0 0
M  V30 11 C -1.2992 2.2323 0.0 0
M  V30 12 C 5.197 2.9764 0.0 0
M  V30 13 C -2.5985 2.9764 0.0 0
M  V30 14 C 6.4962 2.2205 0.0 0
M  V30 15 C -3.8977 2.2205 0.0 0
M  V30 16 C 7.7955 2.9646 0.0 0
M  V30 17 C 9.0948 2.2087 0.0 0
M  V30 END ATOM
M  V30 BEGIN BOND
M  V30 1 2 1 2
M  V30 2 1 2 3
M  V30 3 1 2 4
M  V30 4 1 3 5
M  V30 5 1 4 6
M  V30 6 1 4 7 CFG=1
M  V30 7 1 5 8
M  V30 8 2 6 9
M  V30 9 1 6 10
M  V30 10 1 7 11
M  V30 11 1 10 12
M  V30 12 1 11 13
M  V30 13 1 12 14
M  V30 14 1 13 15
M  V30 15 1 14 16
M  V30 16 1 16 17
M  V30 END BOND
M  V30 BEGIN COLLECTION
M  V30 MDLV30/STERAC1 ATOMS=(1 4)
M  V30 END COLLECTION
M  V30 END CTAB
M  END
>  <Molecule Name>
alpha-Caproylcaproic acid, ethyl ester

>  <Activity Label>
0

>  <SMILES>
CCCCCC(C(CCCC)C(OCC)=O)=O

>  <Molecular Formula>
C14H26O3

>  <InChIKey>
VYTUQQBCZVJABM-UHFFFAOYSA-N

>  <Repellency>
Inactive

>  <Reference DOI>
10.3390/toxics11100837

>  <Target Organism>
Not applied

$$$$
Compound 797
Actelion Java MolfileCreator 2.0

  0  0  0  0  0  0              0 V3000
M  V30 BEGIN CTAB
M  V30 COUNTS 17 16 0 0 0
M  V30 BEGIN ATOM
M  V30 1 O 0.0 0.0 0.0 0
M  V30 2 C 0.0 -1.5026 0.0 0
M  V30 3 O -1.3014 -2.248 0.0 0
M  V30 4 C 1.3014 -2.248 0.0 0
M  V30 5 C -2.6029 -1.5026 0.0 0
M  V30 6 C 2.6029 -1.5026 0.0 0
M  V30 7 C -3.9044 -2.248 0.0 0
M  V30 8 O 3.9044 -2.248 0.0 0
M  V30 9 C -5.2059 -1.5026 0.0 0
M  V30 10 C 5.2059 -1.5026 0.0 0
M  V30 11 C -6.5074 -2.248 0.0 0
M  V30 12 C -7.8089 -1.5026 0.0 0
M  V30 13 C -9.1103 -2.248 0.0 0
M  V30 14 C -10.4118 -1.5026 0.0 0
M  V30 15 C -11.7133 -2.248 0.0 0
M  V30 16 C -13.0148 -1.5026 0.0 0
M  V30 17 C -14.3163 -2.248 0.0 0
M  V30 END ATOM
M  V30 BEGIN BOND
M  V30 1 2 1 2
M  V30 2 1 2 3
M  V30 3 1 2 4
M  V30 4 1 3 5
M  V30 5 1 4 6
M  V30 6 1 5 7
M  V30 7 1 6 8
M  V30 8 1 7 9
M  V30 9 1 8 10
M  V30 10 1 9 11
M  V30 11 1 11 12
M  V30 12 1 12 13
M  V30 13 1 13 14
M  V30 14 1 14 15
M  V30 15 1 15 16
M  V30 16 1 16 17
M  V30 END BOND
M  V30 END CTAB
M  END
>  <Molecule Name>
beta-Methoxypropionic acid, n-decyl ester

>  <Activity Label>
0

>  <SMILES>
CCCCCCCCCCOC(CCOC)=O

>  <Molecular Formula>
C14H28O3

>  <InChIKey>
YRFYLWOORDNFNZ-UHFFFAOYSA-N

>  <Repellency>
Inactive

>  <Reference DOI>
10.3390/toxics11100837

>  <Target Organism>
Not applied

$$$$
Compound 798
Actelion Java MolfileCreator 2.0

  0  0  0  0  0  0              0 V3000
M  V30 BEGIN CTAB
M  V30 COUNTS 17 16 0 0 0
M  V30 BEGIN ATOM
M  V30 1 N 0.0 0.0 0.0 0
M  V30 2 C -1.3004 -0.7475 0.0 0
M  V30 3 C -2.6009 -1.495 0.0 0
M  V30 4 C -3.9014 -0.7475 0.0 0
M  V30 5 C -5.2018 -1.495 0.0 0
M  V30 6 C -6.5023 -0.7475 0.0 0
M  V30 7 C -7.8028 -1.495 0.0 0
M  V30 8 C -9.1032 -0.7475 0.0 0
M  V30 9 C -10.4037 -1.495 0.0 0
M  V30 10 C -11.7042 -0.7475 0.0 0
M  V30 11 C -13.0047 -1.495 0.0 0
M  V30 12 C -14.3051 -0.7475 0.0 0
M  V30 13 C -15.6056 -1.495 0.0 0
M  V30 14 C -16.9061 -0.7475 0.0 0
M  V30 15 C -18.2065 -1.495 0.0 0
M  V30 16 C -19.507 -0.7475 0.0 0
M  V30 17 C -20.8075 -1.495 0.0 0
M  V30 END ATOM
M  V30 BEGIN BOND
M  V30 1 3 1 2
M  V30 2 1 2 3
M  V30 3 1 3 4
M  V30 4 1 4 5
M  V30 5 1 5 6
M  V30 6 1 6 7
M  V30 7 1 7 8
M  V30 8 1 8 9
M  V30 9 1 9 10
M  V30 10 1 10 11
M  V30 11 1 11 12
M  V30 12 1 12 13
M  V30 13 1 13 14
M  V30 14 1 14 15
M  V30 15 1 15 16
M  V30 16 1 16 17
M  V30 END BOND
M  V30 END CTAB
M  END
>  <Molecule Name>
n-Hexadecane nitrile

>  <Activity Label>
0

>  <SMILES>
CCCCCCCCCCCCCCCC#N

>  <Molecular Formula>
C16H31N

>  <InChIKey>
WGXGAUQEMYSVJM-UHFFFAOYSA-N

>  <Repellency>
Inactive

>  <Reference DOI>
10.3390/toxics11100837

>  <Target Organism>
Not applied

$$$$
Compound 799
Actelion Java MolfileCreator 2.0

  0  0  0  0  0  0              0 V3000
M  V30 BEGIN CTAB
M  V30 COUNTS 17 16 0 0 0
M  V30 BEGIN ATOM
M  V30 1 O 0.0 0.0 0.0 0
M  V30 2 C 1.2995 0.7561 0.0 0
M  V30 3 O 1.2995 2.2565 0.0 0
M  V30 4 C 2.5991 0.0118 0.0 0
M  V30 5 C 2.5991 3.0127 0.0 0
M  V30 6 C 3.8987 0.7561 0.0 0
M  V30 7 C 2.5991 -1.4886 0.0 0
M  V30 8 C 2.5991 4.5131 0.0 0
M  V30 9 N 5.1983 1.5004 0.0 0
M  V30 10 C 1.2995 -2.2329 0.0 0
M  V30 11 C 3.8987 -2.2329 0.0 0
M  V30 12 C 1.2995 -3.7333 0.0 0
M  V30 13 C 5.1983 -1.4886 0.0 0
M  V30 14 C 2.5991 -4.4895 0.0 0
M  V30 15 C 0.0 -4.4895 0.0 0
M  V30 16 C 6.4979 -2.2329 0.0 0
M  V30 17 C 5.1983 0.0118 0.0 0
M  V30 END ATOM
M  V30 BEGIN BOND
M  V30 1 2 1 2
M  V30 2 1 2 3
M  V30 3 1 2 4
M  V30 4 1 3 5
M  V30 5 1 4 6
M  V30 6 2 4 7
M  V30 7 1 5 8
M  V30 8 3 6 9
M  V30 9 1 7 10
M  V30 10 1 7 11
M  V30 11 1 10 12
M  V30 12 1 11 13
M  V30 13 1 12 14
M  V30 14 1 12 15
M  V30 15 1 13 16
M  V30 16 1 13 17
M  V30 END BOND
M  V30 END CTAB
M  END
>  <Molecule Name>
(1-iso-Butyl-3-methylbutylidene)cyanoacetic acid ethyl ester

>  <Activity Label>
0

>  <SMILES>
CCOC(C(C#N)=C(CC(C)C)CC(C)C)=O

>  <Molecular Formula>
C14H23NO2

>  <InChIKey>
NXFLNIMSYCMMTG-UHFFFAOYSA-N

>  <Repellency>
Inactive

>  <Reference DOI>
10.3390/toxics11100837

>  <Target Organism>
Not applied

$$$$
Compound 800
Actelion Java MolfileCreator 2.0

  0  0  0  0  0  0              0 V3000
M  V30 BEGIN CTAB
M  V30 COUNTS 17 16 0 0 0
M  V30 BEGIN ATOM
M  V30 1 O 0.0 0.0 0.0 0
M  V30 2 C 0.0 1.4998 0.0 0
M  V30 3 N -1.299 2.2438 0.0 0
M  V30 4 C 1.299 2.2438 0.0 0
M  V30 5 C -2.5981 1.488 0.0 0
M  V30 6 C 2.5981 1.488 0.0 0
M  V30 7 C -3.8972 2.232 0.0 0
M  V30 8 C 3.8972 2.232 0.0 0
M  V30 9 C -3.8972 3.7319 0.0 0
M  V30 10 C -5.1963 1.4762 0.0 0
M  V30 11 C 5.1963 1.4762 0.0 0
M  V30 12 C 6.4954 2.2202 0.0 0
M  V30 13 C 7.7945 1.4644 0.0 0
M  V30 14 C 9.0936 2.2084 0.0 0
M  V30 15 C 10.3927 1.4526 0.0 0
M  V30 16 C 11.6918 2.1966 0.0 0
M  V30 17 C 12.9909 1.4408 0.0 0
M  V30 END ATOM
M  V30 BEGIN BOND
M  V30 1 2 1 2
M  V30 2 1 2 3
M  V30 3 1 2 4
M  V30 4 1 3 5
M  V30 5 1 4 6
M  V30 6 1 5 7
M  V30 7 1 6 8
M  V30 8 1 7 9
M  V30 9 1 7 10
M  V30 10 1 8 11
M  V30 11 1 11 12
M  V30 12 1 12 13
M  V30 13 1 13 14
M  V30 14 1 14 15
M  V30 15 1 15 16
M  V30 16 2 16 17
M  V30 END BOND
M  V30 END CTAB
M  END
>  <Molecule Name>
N-iso-Butyl undecylenamide

>  <Activity Label>
0

>  <SMILES>
CC(C)CNC(CCCCCCCCC=C)=O

>  <Molecular Formula>
C15H29NO

>  <InChIKey>
HZCVULHMXDHNLQ-UHFFFAOYSA-N

>  <Repellency>
Inactive

>  <Reference DOI>
10.3390/toxics11100837

>  <Target Organism>
Not applied

$$$$
Compound 801
Actelion Java MolfileCreator 2.0

  0  0  0  0  0  0              0 V3000
M  V30 BEGIN CTAB
M  V30 COUNTS 17 18 0 0 0
M  V30 BEGIN ATOM
M  V30 1 O 0.0 0.0 0.0 0
M  V30 2 C 0.0 -1.4992 0.0 0
M  V30 3 O 1.2985 -2.2547 0.0 0
M  V30 4 C -1.2985 -2.2547 0.0 0
M  V30 5 C 2.597 -1.511 0.0 0
M  V30 6 C -2.597 -1.511 0.0 0
M  V30 7 C 3.8956 -2.2665 0.0 0
M  V30 8 C -3.8956 -2.2665 0.0 0
M  V30 9 O -4.0491 -3.7539 0.0 0
M  V30 10 O -5.265 -1.6526 0.0 0
M  V30 11 C -2.6325 -3.081 0.0 0
M  V30 12 C -5.5129 -4.0609 0.0 0
M  V30 13 C -6.2684 -2.7623 0.0 0
M  V30 14 C -6.2684 -5.3594 0.0 0
M  V30 15 C -7.7676 -2.7623 0.0 0
M  V30 16 C -7.7676 -5.3594 0.0 0
M  V30 17 C -8.5231 -4.0609 0.0 0
M  V30 END ATOM
M  V30 BEGIN BOND
M  V30 1 2 1 2
M  V30 2 1 2 3
M  V30 3 1 2 4
M  V30 4 1 3 5
M  V30 5 1 4 6
M  V30 6 1 5 7
M  V30 7 1 6 8
M  V30 8 1 8 9
M  V30 9 1 8 10
M  V30 10 1 8 11
M  V30 11 1 9 12
M  V30 12 1 10 13
M  V30 13 1 12 14
M  V30 14 1 13 15
M  V30 15 2 14 16
M  V30 16 2 15 17
M  V30 17 2 12 13
M  V30 18 1 16 17
M  V30 END BOND
M  V30 END CTAB
M  END
>  <Molecule Name>
2-Methyl-1,3-benzodioxole-2-propionic acid, ethyl ester

>  <Activity Label>
0

>  <SMILES>
CCOC(CCC1(C)Oc(cccc2)c2O1)=O

>  <Molecular Formula>
C13H16O4

>  <InChIKey>
CGEABACDMVJTFG-UHFFFAOYSA-N

>  <Repellency>
Inactive

>  <Reference DOI>
10.3390/toxics11100837

>  <Target Organism>
Not applied

$$$$
Compound 802
Actelion Java MolfileCreator 2.0

  0  0  0  0  0  0              0 V3000
M  V30 BEGIN CTAB
M  V30 COUNTS 17 18 0 0 0
M  V30 BEGIN ATOM
M  V30 1 O 0.0 0.0 0.0 0
M  V30 2 C 0.0 1.5015 0.0 0
M  V30 3 O 1.3005 2.2463 0.0 0
M  V30 4 C -1.3005 2.2463 0.0 0
M  V30 5 C 2.601 1.5015 0.0 0
M  V30 6 C -2.601 1.5015 0.0 0
M  V30 7 C 3.9016 2.2463 0.0 0
M  V30 8 O -3.9725 2.1163 0.0 0
M  V30 9 O -2.7547 0.0118 0.0 0
M  V30 10 C -1.336 0.6857 0.0 0
M  V30 11 C 5.2021 1.5015 0.0 0
M  V30 12 C 3.9016 3.7479 0.0 0
M  V30 13 C -4.9775 1.0049 0.0 0
M  V30 14 C -4.2208 -0.2955 0.0 0
M  V30 15 C 6.5026 2.2463 0.0 0
M  V30 16 C 5.2021 4.4927 0.0 0
M  V30 17 C 6.5026 3.7479 0.0 0
M  V30 END ATOM
M  V30 BEGIN BOND
M  V30 1 2 1 2
M  V30 2 1 2 3
M  V30 3 1 2 4
M  V30 4 1 3 5
M  V30 5 1 4 6
M  V30 6 1 5 7
M  V30 7 1 6 8
M  V30 8 1 6 9
M  V30 9 1 6 10
M  V30 10 2 7 11
M  V30 11 1 7 12
M  V30 12 1 8 13
M  V30 13 1 9 14
M  V30 14 1 11 15
M  V30 15 2 12 16
M  V30 16 2 15 17
M  V30 17 1 13 14
M  V30 18 1 16 17
M  V30 END BOND
M  V30 END CTAB
M  END
>  <Molecule Name>
2-Carbobenzoxymethyl-2-methyl-1,3-dioxolane

>  <Activity Label>
0

>  <SMILES>
CC1(CC(OCc2ccccc2)=O)OCCO1

>  <Molecular Formula>
C13H16O4

>  <InChIKey>
MWYUOXQDSXQUED-UHFFFAOYSA-N

>  <Repellency>
Inactive

>  <Reference DOI>
10.3390/toxics11100837

>  <Target Organism>
Not applied

$$$$
Compound 803
Actelion Java MolfileCreator 2.0

  0  0  0  0  0  0              0 V3000
M  V30 BEGIN CTAB
M  V30 COUNTS 17 18 0 0 0
M  V30 BEGIN ATOM
M  V30 1 O 0.0 0.0 0.0 0
M  V30 2 C -1.2992 -0.7559 0.0 0
M  V30 3 C -1.2992 -2.2559 0.0 0
M  V30 4 C -2.5985 0.0 0.0 0
M  V30 5 C 0.0 -3.0119 0.0 0
M  V30 6 C -2.5985 -3.0 0.0 0
M  V30 7 C -2.5985 1.5 0.0 0
M  V30 8 C -3.8977 -0.7441 0.0 0
M  V30 9 O 1.2992 -2.2677 0.0 0
M  V30 10 C 0.0 -4.5119 0.0 0
M  V30 11 C -2.5985 -4.5001 0.0 0
M  V30 12 C -3.8977 2.2559 0.0 0
M  V30 13 C -5.197 0.0118 0.0 0
M  V30 14 C 2.5985 -3.0119 0.0 0
M  V30 15 C -1.2992 -5.256 0.0 0
M  V30 16 C -3.8977 -5.2442 0.0 0
M  V30 17 C -5.197 1.5118 0.0 0
M  V30 END ATOM
M  V30 BEGIN BOND
M  V30 1 2 1 2
M  V30 2 1 2 3
M  V30 3 1 2 4
M  V30 4 2 3 5
M  V30 5 1 3 6
M  V30 6 2 4 7
M  V30 7 1 4 8
M  V30 8 1 5 9
M  V30 9 1 5 10
M  V30 10 2 6 11
M  V30 11 1 7 12
M  V30 12 2 8 13
M  V30 13 1 9 14
M  V30 14 2 10 15
M  V30 15 1 11 16
M  V30 16 2 12 17
M  V30 17 1 11 15
M  V30 18 1 13 17
M  V30 END BOND
M  V30 END CTAB
M  END
>  <Molecule Name>
2-Methoxy-5-methylbenzophenone

>  <Activity Label>
0

>  <SMILES>
Cc(cc1)cc(C(c2ccccc2)=O)c1OC

>  <Molecular Formula>
C15H14O2

>  <InChIKey>
ZSTOXXBHUBYMMY-UHFFFAOYSA-N

>  <Repellency>
Inactive

>  <Reference DOI>
10.3390/toxics11100837

>  <Target Organism>
Not applied

$$$$
Compound 804
Actelion Java MolfileCreator 2.0

  0  0  0  0  0  0              0 V3000
M  V30 BEGIN CTAB
M  V30 COUNTS 17 18 0 0 0
M  V30 BEGIN ATOM
M  V30 1 O 0.0 0.0 0.0 0
M  V30 2 C 0.0 -1.5013 0.0 0
M  V30 3 O -1.3003 -2.2461 0.0 0
M  V30 4 C 1.3003 -2.2461 0.0 0
M  V30 5 C -2.6007 -1.5013 0.0 0
M  V30 6 C 2.6007 -1.5013 0.0 0
M  V30 7 C -3.9011 -2.2461 0.0 0
M  V30 8 C 3.9011 -2.2461 0.0 0
M  V30 9 C 2.6007 0.0 0.0 0
M  V30 10 C -5.2015 -1.4895 0.0 0
M  V30 11 C -3.9011 -3.7474 0.0 0
M  V30 12 C 5.2015 -1.5013 0.0 0
M  V30 13 C 3.9011 0.7447 0.0 0
M  V30 14 C -6.5019 -2.2343 0.0 0
M  V30 15 C -5.2015 -4.4922 0.0 0
M  V30 16 C 5.2015 0.0 0.0 0
M  V30 17 C -6.5019 -3.7356 0.0 0
M  V30 END ATOM
M  V30 BEGIN BOND
M  V30 1 2 1 2
M  V30 2 1 2 3
M  V30 3 1 2 4
M  V30 4 1 3 5
M  V30 5 1 4 6
M  V30 6 1 5 7
M  V30 7 2 6 8
M  V30 8 1 6 9
M  V30 9 2 7 10
M  V30 10 1 7 11
M  V30 11 1 8 12
M  V30 12 2 9 13
M  V30 13 1 10 14
M  V30 14 2 11 15
M  V30 15 2 12 16
M  V30 16 2 14 17
M  V30 17 1 13 16
M  V30 18 1 15 17
M  V30 END BOND
M  V30 END CTAB
M  END
>  <Molecule Name>
Phenylacetic acid, benzyl ester

>  <Activity Label>
0

>  <SMILES>
O=C(Cc1ccccc1)OCc1ccccc1

>  <Molecular Formula>
C15H14O2

>  <InChIKey>
MIYFJEKZLFWKLZ-UHFFFAOYSA-N

>  <Repellency>
Inactive

>  <Reference DOI>
10.3390/toxics11100837

>  <Target Organism>
Not applied

$$$$
Compound 805
Actelion Java MolfileCreator 2.0

  0  0  0  0  0  0              0 V3000
M  V30 BEGIN CTAB
M  V30 COUNTS 17 18 0 0 0
M  V30 BEGIN ATOM
M  V30 1 O 0.0 0.0 0.0 0
M  V30 2 C 0.0 1.5013 0.0 0
M  V30 3 O -1.3003 2.2461 0.0 0
M  V30 4 C 1.3003 2.2461 0.0 0
M  V30 5 C -2.6007 1.5013 0.0 0
M  V30 6 C 2.6007 1.5013 0.0 0
M  V30 7 C 1.3003 3.7474 0.0 0
M  V30 8 C -3.9011 2.2461 0.0 0
M  V30 9 C 3.9011 2.2461 0.0 0
M  V30 10 C 2.6007 4.4922 0.0 0
M  V30 11 C -5.2015 1.5013 0.0 0
M  V30 12 C 3.9011 3.7474 0.0 0
M  V30 13 C -6.5019 2.2579 0.0 0
M  V30 14 C -5.2015 0.0 0.0 0
M  V30 15 C -7.8023 1.5131 0.0 0
M  V30 16 C -6.5019 -0.7447 0.0 0
M  V30 17 C -7.8023 0.0118 0.0 0
M  V30 END ATOM
M  V30 BEGIN BOND
M  V30 1 2 1 2
M  V30 2 1 2 3
M  V30 3 1 2 4
M  V30 4 1 3 5
M  V30 5 2 4 6
M  V30 6 1 4 7
M  V30 7 1 5 8
M  V30 8 1 6 9
M  V30 9 2 7 10
M  V30 10 1 8 11
M  V30 11 2 9 12
M  V30 12 2 11 13
M  V30 13 1 11 14
M  V30 14 1 13 15
M  V30 15 2 14 16
M  V30 16 2 15 17
M  V30 17 1 10 12
M  V30 18 1 16 17
M  V30 END BOND
M  V30 END CTAB
M  END
>  <Molecule Name>
Benzoic acid, phenylethyl ester

>  <Activity Label>
0

>  <SMILES>
O=C(c1ccccc1)OCCc1ccccc1

>  <Molecular Formula>
C15H14O2

>  <InChIKey>
OSORMYZMWHVFOZ-UHFFFAOYSA-N

>  <Repellency>
Inactive

>  <Reference DOI>
10.3390/toxics11100837

>  <Target Organism>
Not applied

$$$$
Compound 806
Actelion Java MolfileCreator 2.0

  0  0  0  0  0  0              0 V3000
M  V30 BEGIN CTAB
M  V30 COUNTS 17 18 0 0 0
M  V30 BEGIN ATOM
M  V30 1 O 0.0 0.0 0.0 0
M  V30 2 C 0.0 -1.5003 0.0 0
M  V30 3 O -1.2995 -2.2446 0.0 0
M  V30 4 C 1.2995 -2.2446 0.0 0
M  V30 5 C -2.599 -1.5003 0.0 0
M  V30 6 C 1.2995 -3.745 0.0 0
M  V30 7 C 2.599 -1.5003 0.0 0
M  V30 8 C -3.8986 -2.2446 0.0 0
M  V30 9 C 2.599 -4.5011 0.0 0
M  V30 10 C 3.8986 -2.2564 0.0 0
M  V30 11 C -5.1981 -1.4885 0.0 0
M  V30 12 C -3.8986 -3.745 0.0 0
M  V30 13 C 3.8986 -3.7568 0.0 0
M  V30 14 C -6.4976 -2.2328 0.0 0
M  V30 15 C -5.1981 -4.4893 0.0 0
M  V30 16 C -6.4976 -3.7332 0.0 0
M  V30 17 C -7.7972 -1.4767 0.0 0
M  V30 END ATOM
M  V30 BEGIN BOND
M  V30 1 2 1 2
M  V30 2 1 2 3
M  V30 3 1 2 4
M  V30 4 1 3 5
M  V30 5 2 4 6
M  V30 6 1 4 7
M  V30 7 1 5 8
M  V30 8 1 6 9
M  V30 9 2 7 10
M  V30 10 2 8 11
M  V30 11 1 8 12
M  V30 12 2 9 13
M  V30 13 1 11 14
M  V30 14 2 12 15
M  V30 15 2 14 16
M  V30 16 1 14 17
M  V30 17 1 10 13
M  V30 18 1 15 16
M  V30 END BOND
M  V30 END CTAB
M  END
>  <Molecule Name>
Benzoic acid, 3-methylbenzyl ester

>  <Activity Label>
0

>  <SMILES>
Cc1cccc(COC(c2ccccc2)=O)c1

>  <Molecular Formula>
C15H14O2

>  <InChIKey>
PNDUDVIQWFVXIO-UHFFFAOYSA-N

>  <Repellency>
Inactive

>  <Reference DOI>
10.3390/toxics11100837

>  <Target Organism>
Not applied

$$$$
Compound 807
Actelion Java MolfileCreator 2.0

  0  0  0  0  0  0              0 V3000
M  V30 BEGIN CTAB
M  V30 COUNTS 17 18 0 0 0
M  V30 BEGIN ATOM
M  V30 1 O 0.0 0.0 0.0 0
M  V30 2 C 0.0 -1.5012 0.0 0
M  V30 3 O -1.3002 -2.2458 0.0 0
M  V30 4 C 1.3002 -2.2458 0.0 0
M  V30 5 C -2.6005 -1.5012 0.0 0 CFG=2
M  V30 6 C 1.3002 -3.7471 0.0 0
M  V30 7 C 2.6005 -1.5012 0.0 0
M  V30 8 C -2.6005 0.0 0.0 0
M  V30 9 C -3.9007 -2.2458 0.0 0
M  V30 10 C 2.6005 -4.5036 0.0 0
M  V30 11 C 3.9007 -2.2577 0.0 0
M  V30 12 C -1.3002 0.7446 0.0 0
M  V30 13 C -3.9007 0.7446 0.0 0
M  V30 14 C 3.9007 -3.7589 0.0 0
M  V30 15 C -1.3002 2.2458 0.0 0
M  V30 16 C -3.9007 2.2458 0.0 0
M  V30 17 C -2.6005 2.9905 0.0 0
M  V30 END ATOM
M  V30 BEGIN BOND
M  V30 1 2 1 2
M  V30 2 1 2 3
M  V30 3 1 2 4
M  V30 4 1 3 5
M  V30 5 2 4 6
M  V30 6 1 4 7
M  V30 7 1 5 8
M  V30 8 1 5 9 CFG=1
M  V30 9 1 6 10
M  V30 10 2 7 11
M  V30 11 2 8 12
M  V30 12 1 8 13
M  V30 13 2 10 14
M  V30 14 1 12 15
M  V30 15 2 13 16
M  V30 16 2 15 17
M  V30 17 1 11 14
M  V30 18 1 16 17
M  V30 END BOND
M  V30 BEGIN COLLECTION
M  V30 MDLV30/STERAC1 ATOMS=(1 5)
M  V30 END COLLECTION
M  V30 END CTAB
M  END
>  <Molecule Name>
Benzoic acid, alpha-methylbenzyl ester

>  <Activity Label>
0

>  <SMILES>
CC(c1ccccc1)OC(c1ccccc1)=O

>  <Molecular Formula>
C15H14O2

>  <InChIKey>
NIHKUOHNHOWTCI-UHFFFAOYSA-N

>  <Repellency>
Inactive

>  <Reference DOI>
10.3390/toxics11100837

>  <Target Organism>
Not applied

$$$$
Compound 808
Actelion Java MolfileCreator 2.0

  0  0  0  0  0  0              0 V3000
M  V30 BEGIN CTAB
M  V30 COUNTS 17 18 0 0 0
M  V30 BEGIN ATOM
M  V30 1 O 0.0 0.0 0.0 0
M  V30 2 C 0.0 -1.5012 0.0 0
M  V30 3 O -1.3002 -2.2458 0.0 0
M  V30 4 C 1.3002 -2.2458 0.0 0
M  V30 5 C -2.6005 -1.5012 0.0 0
M  V30 6 C -2.6005 0.0 0.0 0
M  V30 7 C -3.9007 -2.2458 0.0 0
M  V30 8 C -1.3002 0.7446 0.0 0
M  V30 9 C -3.9007 0.7446 0.0 0
M  V30 10 C -5.201 -1.4893 0.0 0
M  V30 11 C -3.9007 -3.7471 0.0 0
M  V30 12 C -1.3002 2.2458 0.0 0
M  V30 13 C -3.9007 2.2458 0.0 0
M  V30 14 C -6.5012 -2.234 0.0 0
M  V30 15 C -5.201 -4.4917 0.0 0
M  V30 16 C -2.6005 2.9905 0.0 0
M  V30 17 C -6.5012 -3.7352 0.0 0
M  V30 END ATOM
M  V30 BEGIN BOND
M  V30 1 2 1 2
M  V30 2 1 2 3
M  V30 3 1 2 4
M  V30 4 1 3 5
M  V30 5 1 5 6
M  V30 6 1 5 7
M  V30 7 2 6 8
M  V30 8 1 6 9
M  V30 9 2 7 10
M  V30 10 1 7 11
M  V30 11 1 8 12
M  V30 12 2 9 13
M  V30 13 1 10 14
M  V30 14 2 11 15
M  V30 15 2 12 16
M  V30 16 2 14 17
M  V30 17 1 13 16
M  V30 18 1 15 17
M  V30 END BOND
M  V30 END CTAB
M  END
>  <Molecule Name>
Acetic acid, benzhydryl ester

>  <Activity Label>
0

>  <SMILES>
CC(OC(c1ccccc1)c1ccccc1)=O

>  <Molecular Formula>
C15H14O2

>  <InChIKey>
QBKMWJRMLACRJD-UHFFFAOYSA-N

>  <Repellency>
Inactive

>  <Reference DOI>
10.3390/toxics11100837

>  <Target Organism>
Not applied

$$$$
Compound 809
Actelion Java MolfileCreator 2.0

  0  0  0  0  0  0              0 V3000
M  V30 BEGIN CTAB
M  V30 COUNTS 17 18 0 0 0
M  V30 BEGIN ATOM
M  V30 1 O 0.0 0.0 0.0 0
M  V30 2 C 0.0 -1.5007 0.0 0
M  V30 3 O -1.2998 -2.2451 0.0 0
M  V30 4 C 1.2998 -2.2451 0.0 0
M  V30 5 C -2.5996 -1.5007 0.0 0
M  V30 6 C 2.5996 -1.5007 0.0 0
M  V30 7 C 1.2998 -3.7458 0.0 0
M  V30 8 C -3.8994 -2.2451 0.0 0
M  V30 9 C 3.8994 -2.2451 0.0 0
M  V30 10 C 2.5996 -4.5021 0.0 0
M  V30 11 C -5.1992 -1.4888 0.0 0
M  V30 12 C -3.8994 -3.7458 0.0 0
M  V30 13 C 3.8994 -3.7458 0.0 0
M  V30 14 C 5.1992 -1.5007 0.0 0
M  V30 15 C -6.4991 -2.2333 0.0 0
M  V30 16 C -5.1992 -4.4902 0.0 0
M  V30 17 C -6.4991 -3.734 0.0 0
M  V30 END ATOM
M  V30 BEGIN BOND
M  V30 1 2 1 2
M  V30 2 1 2 3
M  V30 3 1 2 4
M  V30 4 1 3 5
M  V30 5 2 4 6
M  V30 6 1 4 7
M  V30 7 1 5 8
M  V30 8 1 6 9
M  V30 9 2 7 10
M  V30 10 2 8 11
M  V30 11 1 8 12
M  V30 12 2 9 13
M  V30 13 1 9 14
M  V30 14 1 11 15
M  V30 15 2 12 16
M  V30 16 2 15 17
M  V30 17 1 10 13
M  V30 18 1 16 17
M  V30 END BOND
M  V30 END CTAB
M  END
>  <Molecule Name>
m-Toluic acid, benzyl ester

>  <Activity Label>
0

>  <SMILES>
Cc1cccc(C(OCc2ccccc2)=O)c1

>  <Molecular Formula>
C15H14O2

>  <InChIKey>
MQFWKCFSZJWETP-UHFFFAOYSA-N

>  <Repellency>
Inactive

>  <Reference DOI>
10.3390/toxics11100837

>  <Target Organism>
Not applied

$$$$
Compound 810
Actelion Java MolfileCreator 2.0

  0  0  0  0  0  0              0 V3000
M  V30 BEGIN CTAB
M  V30 COUNTS 17 18 0 0 0
M  V30 BEGIN ATOM
M  V30 1 O 0.0 0.0 0.0 0
M  V30 2 C 0.0 -1.5005 0.0 0
M  V30 3 O -1.2996 -2.2449 0.0 0
M  V30 4 C 1.2996 -2.2449 0.0 0
M  V30 5 C -2.5993 -1.5005 0.0 0
M  V30 6 C 2.5993 -1.5005 0.0 0
M  V30 7 C 1.2996 -3.7454 0.0 0
M  V30 8 C -3.899 -2.2449 0.0 0
M  V30 9 C 3.899 -2.2567 0.0 0
M  V30 10 C 2.5993 0.0 0.0 0
M  V30 11 C 2.5993 -4.5016 0.0 0
M  V30 12 C -5.1987 -1.4887 0.0 0
M  V30 13 C -3.899 -3.7454 0.0 0
M  V30 14 C 3.899 -3.7572 0.0 0
M  V30 15 C -6.4984 -2.2331 0.0 0
M  V30 16 C -5.1987 -4.4898 0.0 0
M  V30 17 C -6.4984 -3.7336 0.0 0
M  V30 END ATOM
M  V30 BEGIN BOND
M  V30 1 2 1 2
M  V30 2 1 2 3
M  V30 3 1 2 4
M  V30 4 1 3 5
M  V30 5 2 4 6
M  V30 6 1 4 7
M  V30 7 1 5 8
M  V30 8 1 6 9
M  V30 9 1 6 10
M  V30 10 2 7 11
M  V30 11 2 8 12
M  V30 12 1 8 13
M  V30 13 2 9 14
M  V30 14 1 12 15
M  V30 15 2 13 16
M  V30 16 2 15 17
M  V30 17 1 11 14
M  V30 18 1 16 17
M  V30 END BOND
M  V30 END CTAB
M  END
>  <Molecule Name>
o-Toluic acid, benzyl ester

>  <Activity Label>
0

>  <SMILES>
Cc(cccc1)c1C(OCc1ccccc1)=O

>  <Molecular Formula>
C15H14O2

>  <InChIKey>
IRNSYGIUGHROTJ-UHFFFAOYSA-N

>  <Repellency>
Inactive

>  <Reference DOI>
10.3390/toxics11100837

>  <Target Organism>
Not applied

$$$$
Compound 811
Actelion Java MolfileCreator 2.0

  0  0  0  0  0  0              0 V3000
M  V30 BEGIN CTAB
M  V30 COUNTS 17 18 0 0 0
M  V30 BEGIN ATOM
M  V30 1 O 0.0 0.0 0.0 0
M  V30 2 C 0.0 1.5 0.0 0
M  V30 3 O -1.2992 2.2441 0.0 0
M  V30 4 C 1.2992 2.2441 0.0 0
M  V30 5 C -2.5985 1.4882 0.0 0
M  V30 6 C 2.5985 1.5 0.0 0
M  V30 7 C 1.2992 3.7442 0.0 0
M  V30 8 C -2.5985 2.9883 0.0 0
M  V30 9 C -3.8978 0.7441 0.0 0
M  V30 10 C -1.2992 0.7323 0.0 0
M  V30 11 C 3.8978 2.256 0.0 0
M  V30 12 C 2.5985 4.5001 0.0 0
M  V30 13 C -2.5985 4.4883 0.0 0
M  V30 14 C -3.8978 -0.7559 0.0 0
M  V30 15 C -1.2992 -0.7677 0.0 0
M  V30 16 C 3.8978 3.756 0.0 0
M  V30 17 C -2.5985 -1.5118 0.0 0
M  V30 END ATOM
M  V30 BEGIN BOND
M  V30 1 2 1 2
M  V30 2 1 2 3
M  V30 3 1 2 4
M  V30 4 1 3 5
M  V30 5 2 4 6
M  V30 6 1 4 7
M  V30 7 1 5 8
M  V30 8 1 5 9
M  V30 9 1 5 10
M  V30 10 1 6 11
M  V30 11 2 7 12
M  V30 12 3 8 13
M  V30 13 1 9 14
M  V30 14 1 10 15
M  V30 15 2 11 16
M  V30 16 1 14 17
M  V30 17 1 12 16
M  V30 18 1 15 17
M  V30 END BOND
M  V30 END CTAB
M  END
>  <Molecule Name>
Benzoic acid, 1-ethynylcyclohexyl ester

>  <Activity Label>
0

>  <SMILES>
C#CC1(CCCCC1)OC(c1ccccc1)=O

>  <Molecular Formula>
C15H16O2

>  <InChIKey>
PSCIBDKASFWWDB-UHFFFAOYSA-N

>  <Repellency>
Inactive

>  <Reference DOI>
10.3390/toxics11100837

>  <Target Organism>
Not applied

$$$$
Compound 812
Actelion Java MolfileCreator 2.0

  0  0  0  0  0  0              0 V3000
M  V30 BEGIN CTAB
M  V30 COUNTS 17 18 0 0 0
M  V30 BEGIN ATOM
M  V30 1 O 0.0 0.0 0.0 0
M  V30 2 C -1.2992 -0.7441 0.0 0
M  V30 3 C 1.2992 -0.7441 0.0 0
M  V30 4 C -2.5985 0.0118 0.0 0
M  V30 5 C -1.2992 -2.2441 0.0 0
M  V30 6 C 2.5985 0.0 0.0 0
M  V30 7 C -3.8977 -0.7323 0.0 0
M  V30 8 C -2.5985 -2.9882 0.0 0
M  V30 9 C 3.8977 -0.7441 0.0 0
M  V30 10 C 2.5985 1.5 0.0 0
M  V30 11 C -3.8977 -2.2323 0.0 0
M  V30 12 C -5.197 0.0236 0.0 0
M  V30 13 C 5.197 0.0118 0.0 0
M  V30 14 C 3.8977 2.2559 0.0 0
M  V30 15 C 5.197 1.5118 0.0 0
M  V30 16 O 6.4962 2.2677 0.0 0
M  V30 17 C 6.4962 3.7678 0.0 0
M  V30 END ATOM
M  V30 BEGIN BOND
M  V30 1 1 1 2
M  V30 2 1 1 3
M  V30 3 2 2 4
M  V30 4 1 2 5
M  V30 5 1 3 6
M  V30 6 1 4 7
M  V30 7 2 5 8
M  V30 8 2 6 9
M  V30 9 1 6 10
M  V30 10 2 7 11
M  V30 11 1 7 12
M  V30 12 1 9 13
M  V30 13 2 10 14
M  V30 14 2 13 15
M  V30 15 1 15 16
M  V30 16 1 16 17
M  V30 17 1 8 11
M  V30 18 1 14 15
M  V30 END BOND
M  V30 END CTAB
M  END
>  <Molecule Name>
m-Tolyl p-anisyl ether

>  <Activity Label>
0

>  <SMILES>
Cc1cccc(OCc(cc2)ccc2OC)c1

>  <Molecular Formula>
C15H16O2

>  <InChIKey>
NIYVQMNSOKURDN-UHFFFAOYSA-N

>  <Repellency>
Inactive

>  <Reference DOI>
10.3390/toxics11100837

>  <Target Organism>
Not applied

$$$$
Compound 813
Actelion Java MolfileCreator 2.0

  0  0  0  0  0  0              0 V3000
M  V30 BEGIN CTAB
M  V30 COUNTS 17 18 0 0 0
M  V30 BEGIN ATOM
M  V30 1 Cl 0.0 0.0 0.0 0
M  V30 2 C -1.3003 0.7447 0.0 0
M  V30 3 C -1.3003 2.2461 0.0 0
M  V30 4 C -2.6007 0.0 0.0 0
M  V30 5 C -2.6007 2.9909 0.0 0
M  V30 6 C -3.9011 0.7447 0.0 0
M  V30 7 C -3.9011 2.2461 0.0 0
M  V30 8 C -5.2015 2.9909 0.0 0
M  V30 9 O -5.2015 4.4922 0.0 0
M  V30 10 O -6.5019 2.2461 0.0 0
M  V30 11 C -7.8023 2.9909 0.0 0
M  V30 12 C -9.1027 2.2461 0.0 0
M  V30 13 C -10.4031 3.0027 0.0 0
M  V30 14 C -9.1027 0.7447 0.0 0
M  V30 15 C -11.7035 2.2579 0.0 0
M  V30 16 C -10.4031 0.0 0.0 0
M  V30 17 C -11.7035 0.7565 0.0 0
M  V30 END ATOM
M  V30 BEGIN BOND
M  V30 1 1 1 2
M  V30 2 2 2 3
M  V30 3 1 2 4
M  V30 4 1 3 5
M  V30 5 2 4 6
M  V30 6 2 5 7
M  V30 7 1 7 8
M  V30 8 2 8 9
M  V30 9 1 8 10
M  V30 10 1 10 11
M  V30 11 1 11 12
M  V30 12 2 12 13
M  V30 13 1 12 14
M  V30 14 1 13 15
M  V30 15 2 14 16
M  V30 16 2 15 17
M  V30 17 1 6 7
M  V30 18 1 16 17
M  V30 END BOND
M  V30 END CTAB
M  END
>  <Molecule Name>
p-Chlorobenzoic acid, benzyl ester

>  <Activity Label>
0

>  <SMILES>
O=C(c(cc1)ccc1Cl)OCc1ccccc1

>  <Molecular Formula>
C14H11O2Cl

>  <InChIKey>
VBIOKGVOQMIBHO-UHFFFAOYSA-N

>  <Repellency>
Inactive

>  <Reference DOI>
10.3390/toxics11100837

>  <Target Organism>
Not applied

$$$$
Compound 814
Actelion Java MolfileCreator 2.0

  0  0  0  0  0  0              0 V3000
M  V30 BEGIN CTAB
M  V30 COUNTS 17 18 0 0 0
M  V30 BEGIN ATOM
M  V30 1 O 0.0 0.0 0.0 0
M  V30 2 C 0.0 -1.5008 0.0 0
M  V30 3 C -1.2999 -2.2454 0.0 0
M  V30 4 C 1.2999 -2.2454 0.0 0
M  V30 5 C -2.5999 -1.489 0.0 0
M  V30 6 C -1.2999 -3.7462 0.0 0
M  V30 7 C 2.5999 -1.5008 0.0 0
M  V30 8 C 1.2999 -3.7462 0.0 0
M  V30 9 C -3.8999 -2.2335 0.0 0
M  V30 10 C -2.5999 -4.4908 0.0 0
M  V30 11 C 3.8999 -2.2572 0.0 0
M  V30 12 C 2.5999 -4.4908 0.0 0
M  V30 13 C -3.8999 -3.7344 0.0 0
M  V30 14 C 3.8999 -3.758 0.0 0
M  V30 15 C -5.1998 -4.4789 0.0 0
M  V30 16 C 5.1998 -4.5144 0.0 0
M  V30 17 C -5.1998 -5.9798 0.0 0
M  V30 END ATOM
M  V30 BEGIN BOND
M  V30 1 2 1 2
M  V30 2 1 2 3
M  V30 3 1 2 4
M  V30 4 2 3 5
M  V30 5 1 3 6
M  V30 6 2 4 7
M  V30 7 1 4 8
M  V30 8 1 5 9
M  V30 9 2 6 10
M  V30 10 1 7 11
M  V30 11 2 8 12
M  V30 12 2 9 13
M  V30 13 2 11 14
M  V30 14 1 13 15
M  V30 15 1 14 16
M  V30 16 1 15 17
M  V30 17 1 10 13
M  V30 18 1 12 14
M  V30 END BOND
M  V30 END CTAB
M  END
>  <Molecule Name>
4-methyl-4'-ethylbenzophenone

>  <Activity Label>
0

>  <SMILES>
CCc(cc1)ccc1C(c1ccc(C)cc1)=O

>  <Molecular Formula>
C16H16O

>  <InChIKey>
VZUYIGUVLGEBNC-UHFFFAOYSA-N

>  <Repellency>
Inactive

>  <Reference DOI>
10.3390/toxics11100837

>  <Target Organism>
Not applied

$$$$
Compound 815
Actelion Java MolfileCreator 2.0

  0  0  0  0  0  0              0 V3000
M  V30 BEGIN CTAB
M  V30 COUNTS 17 18 0 0 0
M  V30 BEGIN ATOM
M  V30 1 O 0.0 0.0 0.0 0
M  V30 2 C 0.0 -1.4727 0.0 0
M  V30 3 C 1.2772 -2.2025 0.0 0
M  V30 4 C 0.0 -2.9454 0.0 0
M  V30 5 C -1.2772 -2.2025 0.0 0
M  V30 6 C 1.0947 -3.8577 0.0 0
M  V30 7 C 2.5544 -1.4727 0.0 0
M  V30 8 C -1.2772 -3.6753 0.0 0
M  V30 9 C 1.4596 -3.584 0.0 0
M  V30 10 C -2.5544 -1.4727 0.0 0
M  V30 11 C 2.5544 -4.4051 0.0 0
M  V30 12 C 3.8316 -2.2025 0.0 0
M  V30 13 C -1.2772 -5.148 0.0 0
M  V30 14 C 1.2772 -5.161 0.0 0
M  V30 15 C -3.8316 -2.2025 0.0 0
M  V30 16 C 3.8316 -3.6753 0.0 0
M  V30 17 C 0.0 -5.8778 0.0 0
M  V30 END ATOM
M  V30 BEGIN BOND
M  V30 1 1 1 2
M  V30 2 1 2 3
M  V30 3 1 2 4
M  V30 4 1 2 5
M  V30 5 2 3 6
M  V30 6 1 3 7
M  V30 7 2 4 8
M  V30 8 1 4 9
M  V30 9 1 5 10
M  V30 10 1 6 11
M  V30 11 2 7 12
M  V30 12 1 8 13
M  V30 13 2 9 14
M  V30 14 1 10 15
M  V30 15 2 11 16
M  V30 16 2 13 17
M  V30 17 1 12 16
M  V30 18 1 14 17
M  V30 END BOND
M  V30 END CTAB
M  END
>  <Molecule Name>
Diphenyl-n-propylcarbinol

>  <Activity Label>
0

>  <SMILES>
CCCC(c1ccccc1)(c1ccccc1)O

>  <Molecular Formula>
C16H18O

>  <InChIKey>
DGOVPDXJOQTUQI-UHFFFAOYSA-N

>  <Repellency>
Inactive

>  <Reference DOI>
10.3390/toxics11100837

>  <Target Organism>
Not applied

$$$$
Compound 816
Actelion Java MolfileCreator 2.0

  0  0  0  0  0  0              0 V3000
M  V30 BEGIN CTAB
M  V30 COUNTS 17 18 0 0 0
M  V30 BEGIN ATOM
M  V30 1 O 0.0 0.0 0.0 0
M  V30 2 C 1.3005 -0.7448 0.0 0
M  V30 3 C -1.3005 -0.7448 0.0 0
M  V30 4 C 2.601 0.0 0.0 0
M  V30 5 C -2.601 0.0 0.0 0
M  V30 6 C 3.9015 -0.7448 0.0 0
M  V30 7 C -3.9015 -0.7448 0.0 0
M  V30 8 C 3.9015 -2.2463 0.0 0
M  V30 9 C 5.2021 0.0 0.0 0
M  V30 10 C -5.2021 0.0118 0.0 0
M  V30 11 C -3.9015 -2.2463 0.0 0
M  V30 12 C 5.2021 -2.9912 0.0 0
M  V30 13 C 6.5026 -0.7448 0.0 0
M  V30 14 C -6.5026 -0.733 0.0 0
M  V30 15 C -5.2021 -2.9912 0.0 0
M  V30 16 C 6.5026 -2.2463 0.0 0
M  V30 17 C -6.5026 -2.2345 0.0 0
M  V30 END ATOM
M  V30 BEGIN BOND
M  V30 1 1 1 2
M  V30 2 1 1 3
M  V30 3 1 2 4
M  V30 4 1 3 5
M  V30 5 1 4 6
M  V30 6 1 5 7
M  V30 7 2 6 8
M  V30 8 1 6 9
M  V30 9 2 7 10
M  V30 10 1 7 11
M  V30 11 1 8 12
M  V30 12 2 9 13
M  V30 13 1 10 14
M  V30 14 2 11 15
M  V30 15 2 12 16
M  V30 16 2 14 17
M  V30 17 1 13 16
M  V30 18 1 15 17
M  V30 END BOND
M  V30 END CTAB
M  END
>  <Molecule Name>
Di-(2-phenylethyl) ether

>  <Activity Label>
0

>  <SMILES>
C(COCCc1ccccc1)c1ccccc1

>  <Molecular Formula>
C16H18O

>  <InChIKey>
AMOYMEBHYUTMKJ-UHFFFAOYSA-N

>  <Repellency>
Inactive

>  <Reference DOI>
10.3390/toxics11100837

>  <Target Organism>
Not applied

$$$$
Compound 817
Actelion Java MolfileCreator 2.0

  0  0  0  0  0  0              0 V3000
M  V30 BEGIN CTAB
M  V30 COUNTS 17 18 0 0 0
M  V30 BEGIN ATOM
M  V30 1 O 0.0 0.0 0.0 0
M  V30 2 C 1.3005 -0.7448 0.0 0
M  V30 3 C -1.3005 -0.7448 0.0 0
M  V30 4 C 2.601 0.0 0.0 0
M  V30 5 C -2.601 0.0 0.0 0
M  V30 6 C 3.9015 -0.7448 0.0 0
M  V30 7 C -3.9015 -0.7448 0.0 0
M  V30 8 C 3.9015 -2.2463 0.0 0
M  V30 9 C 5.2021 0.0 0.0 0
M  V30 10 C -5.2021 0.0118 0.0 0
M  V30 11 C -3.9015 -2.2463 0.0 0
M  V30 12 C 5.2021 -2.9912 0.0 0
M  V30 13 C 6.5026 -0.7448 0.0 0
M  V30 14 C -6.5026 -0.733 0.0 0
M  V30 15 C -5.2021 -2.9912 0.0 0
M  V30 16 C 6.5026 -2.2463 0.0 0
M  V30 17 C -6.5026 -2.2345 0.0 0
M  V30 END ATOM
M  V30 BEGIN BOND
M  V30 1 1 1 2
M  V30 2 1 1 3
M  V30 3 1 2 4
M  V30 4 1 3 5
M  V30 5 1 4 6
M  V30 6 1 5 7
M  V30 7 1 6 8
M  V30 8 1 6 9
M  V30 9 1 7 10
M  V30 10 1 7 11
M  V30 11 1 8 12
M  V30 12 1 9 13
M  V30 13 1 10 14
M  V30 14 1 11 15
M  V30 15 1 12 16
M  V30 16 1 14 17
M  V30 17 1 13 16
M  V30 18 1 15 17
M  V30 END BOND
M  V30 END CTAB
M  END
>  <Molecule Name>
Di-(2-cyclohexylethyl) ether

>  <Activity Label>
0

>  <SMILES>
C(COCCC1CCCCC1)C1CCCCC1

>  <Molecular Formula>
C16H30O

>  <InChIKey>
JRHMBFSBENDSHJ-UHFFFAOYSA-N

>  <Repellency>
Inactive

>  <Reference DOI>
10.3390/toxics11100837

>  <Target Organism>
Not applied

$$$$
Compound 818
Actelion Java MolfileCreator 2.0

  0  0  0  0  0  0              0 V3000
M  V30 BEGIN CTAB
M  V30 COUNTS 17 18 0 0 0
M  V30 BEGIN ATOM
M  V30 1 O 0.0 0.0 0.0 0
M  V30 2 C 1.2998 0.7444 0.0 0
M  V30 3 C -1.2998 0.7444 0.0 0
M  V30 4 C 2.5996 0.0 0.0 0
M  V30 5 C 1.2998 2.2451 0.0 0
M  V30 6 C -2.5996 0.0 0.0 0
M  V30 7 C 3.8994 0.7562 0.0 0
M  V30 8 C 2.5996 3.0014 0.0 0
M  V30 9 C -3.8994 0.7562 0.0 0
M  V30 10 C -2.5996 -1.5007 0.0 0
M  V30 11 C 3.8994 2.2569 0.0 0
M  V30 12 C -5.1992 0.0118 0.0 0
M  V30 13 C -3.8994 -2.2451 0.0 0
M  V30 14 C -5.1992 -1.4888 0.0 0
M  V30 15 C -6.4991 -2.2333 0.0 0
M  V30 16 C -7.7989 -1.4888 0.0 0
M  V30 17 C -6.4991 -3.734 0.0 0
M  V30 END ATOM
M  V30 BEGIN BOND
M  V30 1 1 1 2
M  V30 2 1 1 3
M  V30 3 1 2 4
M  V30 4 1 2 5
M  V30 5 1 3 6
M  V30 6 1 4 7
M  V30 7 1 5 8
M  V30 8 2 6 9
M  V30 9 1 6 10
M  V30 10 1 7 11
M  V30 11 1 9 12
M  V30 12 2 10 13
M  V30 13 2 12 14
M  V30 14 1 14 15
M  V30 15 1 15 16
M  V30 16 1 15 17
M  V30 17 1 8 11
M  V30 18 1 13 14
M  V30 END BOND
M  V30 END CTAB
M  END
>  <Molecule Name>
4-iso-Propylbenzyl cyclohexyl ether

>  <Activity Label>
0

>  <SMILES>
CC(C)c1ccc(COC2CCCCC2)cc1

>  <Molecular Formula>
C16H24O

>  <InChIKey>
LQPBDONKURCZCG-UHFFFAOYSA-N

>  <Repellency>
Inactive

>  <Reference DOI>
10.3390/toxics11100837

>  <Target Organism>
Not applied

$$$$
Compound 819
Actelion Java MolfileCreator 2.0

  0  0  0  0  0  0              0 V3000
M  V30 BEGIN CTAB
M  V30 COUNTS 17 18 0 0 0
M  V30 BEGIN ATOM
M  V30 1 O 0.0 0.0 0.0 0
M  V30 2 C 1.3008 0.745 0.0 0
M  V30 3 C -1.3008 0.745 0.0 0
M  V30 4 C 2.6016 0.0 0.0 0
M  V30 5 C 1.3008 2.2468 0.0 0
M  V30 6 C -1.3008 2.2468 0.0 0
M  V30 7 C -2.6016 0.0 0.0 0
M  V30 8 C 2.6016 -1.5018 0.0 0
M  V30 9 C 3.9024 0.745 0.0 0
M  V30 10 C 0.0 2.9919 0.0 0
M  V30 11 C -2.6016 2.9919 0.0 0
M  V30 12 C 3.9024 -2.2468 0.0 0
M  V30 13 C 5.2033 0.0 0.0 0
M  V30 14 C 0.0 4.4937 0.0 0
M  V30 15 C -2.6016 4.4937 0.0 0
M  V30 16 C 5.2033 -1.5018 0.0 0
M  V30 17 C -1.3008 5.2387 0.0 0
M  V30 END ATOM
M  V30 BEGIN BOND
M  V30 1 1 1 2
M  V30 2 1 1 3
M  V30 3 1 2 4
M  V30 4 1 2 5
M  V30 5 1 3 6
M  V30 6 1 3 7
M  V30 7 2 4 8
M  V30 8 1 4 9
M  V30 9 2 6 10
M  V30 10 1 6 11
M  V30 11 1 8 12
M  V30 12 2 9 13
M  V30 13 1 10 14
M  V30 14 2 11 15
M  V30 15 2 12 16
M  V30 16 2 14 17
M  V30 17 1 13 16
M  V30 18 1 15 17
M  V30 END BOND
M  V30 END CTAB
M  END
>  <Molecule Name>
alpha, alpha'-Diphenyldiethyl ether

>  <Activity Label>
0

>  <SMILES>
CC(c1ccccc1)OC(C)c1ccccc1

>  <Molecular Formula>
C16H18O

>  <InChIKey>
WXAVSTZWKNIWCN-UHFFFAOYSA-N

>  <Repellency>
Inactive

>  <Reference DOI>
10.3390/toxics11100837

>  <Target Organism>
Not applied

$$$$
Compound 820
Actelion Java MolfileCreator 2.0

  0  0  0  0  0  0              0 V3000
M  V30 BEGIN CTAB
M  V30 COUNTS 17 18 0 0 0
M  V30 BEGIN ATOM
M  V30 1 Cl 0.0 0.0 0.0 0
M  V30 2 C 1.2995 0.7442 0.0 0
M  V30 3 C 1.2995 2.2446 0.0 0
M  V30 4 C 2.599 -0.0118 0.0 0
M  V30 5 O 3.8986 0.7324 0.0 0
M  V30 6 C 5.1981 -0.0236 0.0 0
M  V30 7 C 6.4976 0.7206 0.0 0
M  V30 8 C 5.1981 -1.524 0.0 0
M  V30 9 C 7.7972 -0.0354 0.0 0
M  V30 10 C 6.4976 -2.2682 0.0 0
M  V30 11 C 7.7972 -1.5358 0.0 0
M  V30 12 C 9.0967 -2.2919 0.0 0
M  V30 13 C 9.0967 -3.7922 0.0 0
M  V30 14 C 10.3962 -1.5476 0.0 0
M  V30 15 C 10.3962 -4.5483 0.0 0
M  V30 16 C 11.6958 -2.3037 0.0 0
M  V30 17 C 11.6958 -3.804 0.0 0
M  V30 END ATOM
M  V30 BEGIN BOND
M  V30 1 1 1 2
M  V30 2 2 2 3
M  V30 3 1 2 4
M  V30 4 1 4 5
M  V30 5 1 5 6
M  V30 6 2 6 7
M  V30 7 1 6 8
M  V30 8 1 7 9
M  V30 9 2 8 10
M  V30 10 2 9 11
M  V30 11 1 11 12
M  V30 12 1 12 13
M  V30 13 1 12 14
M  V30 14 1 13 15
M  V30 15 1 14 16
M  V30 16 1 15 17
M  V30 17 1 10 11
M  V30 18 1 16 17
M  V30 END BOND
M  V30 END CTAB
M  END
>  <Molecule Name>
2-Chloroallyl 4-cyclo hexylphenyl ether

>  <Activity Label>
0

>  <SMILES>
C=C(COc1ccc(C2CCCCC2)cc1)Cl

>  <Molecular Formula>
C15H19OCl

>  <InChIKey>
NOISBLSFPMSCJB-UHFFFAOYSA-N

>  <Repellency>
Inactive

>  <Reference DOI>
10.3390/toxics11100837

>  <Target Organism>
Not applied

$$$$
Compound 821
Actelion Java MolfileCreator 2.0

  0  0  0  0  0  0              0 V3000
M  V30 BEGIN CTAB
M  V30 COUNTS 17 18 0 0 0
M  V30 BEGIN ATOM
M  V30 1 O 0.0 0.0 0.0 0
M  V30 2 C 0.0 -1.5007 0.0 0
M  V30 3 O -1.2998 -2.2451 0.0 0
M  V30 4 C 1.2998 -2.2451 0.0 0
M  V30 5 C -2.5996 -1.5007 0.0 0
M  V30 6 C 1.2998 -3.7458 0.0 0
M  V30 7 C 2.5996 -1.5007 0.0 0
M  V30 8 C -3.8994 -2.2451 0.0 0
M  V30 9 O 0.0 -4.4902 0.0 0
M  V30 10 C 2.5996 -4.5021 0.0 0
M  V30 11 C 3.8994 -2.2569 0.0 0
M  V30 12 C -5.1992 -1.4888 0.0 0
M  V30 13 C -3.8994 -3.7458 0.0 0
M  V30 14 C 3.8994 -3.7576 0.0 0
M  V30 15 C -6.4991 -2.2333 0.0 0
M  V30 16 C -5.1992 -4.4902 0.0 0
M  V30 17 C -6.4991 -3.734 0.0 0
M  V30 END ATOM
M  V30 BEGIN BOND
M  V30 1 2 1 2
M  V30 2 1 2 3
M  V30 3 1 2 4
M  V30 4 1 3 5
M  V30 5 2 4 6
M  V30 6 1 4 7
M  V30 7 1 5 8
M  V30 8 1 6 9
M  V30 9 1 6 10
M  V30 10 2 7 11
M  V30 11 2 8 12
M  V30 12 1 8 13
M  V30 13 2 10 14
M  V30 14 1 12 15
M  V30 15 2 13 16
M  V30 16 2 15 17
M  V30 17 1 11 14
M  V30 18 1 16 17
M  V30 END BOND
M  V30 END CTAB
M  END
>  <Molecule Name>
Salicylic acid, benzyl ester

>  <Activity Label>
0

>  <SMILES>
Oc(cccc1)c1C(OCc1ccccc1)=O

>  <Molecular Formula>
C14H12O3

>  <InChIKey>
ZCTQGTTXIYCGGC-UHFFFAOYSA-N

>  <Repellency>
Inactive

>  <Reference DOI>
10.3390/toxics11100837

>  <Target Organism>
Not applied

$$$$
Compound 822
Actelion Java MolfileCreator 2.0

  0  0  0  0  0  0              0 V3000
M  V30 BEGIN CTAB
M  V30 COUNTS 17 18 0 0 0
M  V30 BEGIN ATOM
M  V30 1 O 0.0 0.0 0.0 0
M  V30 2 C 0.0 1.4985 0.0 0
M  V30 3 O -1.2979 2.2419 0.0 0
M  V30 4 C 1.2979 2.2419 0.0 0
M  V30 5 C -2.5959 1.4867 0.0 0
M  V30 6 C 1.2979 3.7405 0.0 0
M  V30 7 C 2.5959 1.4867 0.0 0
M  V30 8 C -3.8939 2.2301 0.0 0
M  V30 9 O 0.0 4.4956 0.0 0
M  V30 10 C 2.5959 4.4838 0.0 0
M  V30 11 C 3.8939 2.2301 0.0 0
M  V30 12 C -5.1918 1.4749 0.0 0
M  V30 13 C 3.8939 3.7405 0.0 0
M  V30 14 C 5.1918 1.4749 0.0 0
M  V30 15 C 5.1918 4.4838 0.0 0
M  V30 16 C 6.4898 2.2183 0.0 0
M  V30 17 C 6.4898 3.7405 0.0 0
M  V30 END ATOM
M  V30 BEGIN BOND
M  V30 1 2 1 2
M  V30 2 1 2 3
M  V30 3 1 2 4
M  V30 4 1 3 5
M  V30 5 1 4 6
M  V30 6 2 4 7
M  V30 7 1 5 8
M  V30 8 1 6 9
M  V30 9 2 6 10
M  V30 10 1 7 11
M  V30 11 1 8 12
M  V30 12 1 10 13
M  V30 13 1 11 14
M  V30 14 1 13 15
M  V30 15 2 14 16
M  V30 16 2 15 17
M  V30 17 2 11 13
M  V30 18 1 16 17
M  V30 END BOND
M  V30 END CTAB
M  END
>  <Molecule Name>
3-Hydroxy-2-naphthoic acid, n-propyl ester

>  <Activity Label>
0

>  <SMILES>
CCCOC(c1cc(cccc2)c2cc1O)=O

>  <Molecular Formula>
C14H14O3

>  <InChIKey>
OVOOYXCGLYZJLN-UHFFFAOYSA-N

>  <Repellency>
Inactive

>  <Reference DOI>
10.3390/toxics11100837

>  <Target Organism>
Not applied

$$$$
Compound 823
Actelion Java MolfileCreator 2.0

  0  0  0  0  0  0              0 V3000
M  V30 BEGIN CTAB
M  V30 COUNTS 17 18 0 0 0
M  V30 BEGIN ATOM
M  V30 1 O 0.0 0.0 0.0 0
M  V30 2 C 0.0 -1.4995 0.0 0
M  V30 3 O -1.2988 -2.2552 0.0 0
M  V30 4 C 1.2988 -2.2552 0.0 0
M  V30 5 C -2.5977 -1.5114 0.0 0
M  V30 6 C 2.5977 -1.5114 0.0 0
M  V30 7 C -3.8965 -2.2671 0.0 0 CFG=2
M  V30 8 C 3.8965 -2.2671 0.0 0
M  V30 9 O -4.05 -3.7548 0.0 0
M  V30 10 C -5.2662 -1.653 0.0 0
M  V30 11 C 3.8965 -3.7666 0.0 0
M  V30 12 C 5.1954 -1.5232 0.0 0
M  V30 13 C -5.5142 -4.0618 0.0 0
M  V30 14 C -6.2699 -2.763 0.0 0
M  V30 15 C 5.1954 -4.5223 0.0 0
M  V30 16 C 6.4943 -2.2671 0.0 0
M  V30 17 C 6.4943 -3.7785 0.0 0
M  V30 END ATOM
M  V30 BEGIN BOND
M  V30 1 2 1 2
M  V30 2 1 2 3
M  V30 3 1 2 4
M  V30 4 1 3 5
M  V30 5 2 4 6 CFG=2
M  V30 6 1 7 5 CFG=3
M  V30 7 1 6 8
M  V30 8 1 7 9
M  V30 9 1 7 10
M  V30 10 2 8 11
M  V30 11 1 8 12
M  V30 12 1 9 13
M  V30 13 1 10 14
M  V30 14 1 11 15
M  V30 15 2 12 16
M  V30 16 2 15 17
M  V30 17 1 13 14
M  V30 18 1 16 17
M  V30 END BOND
M  V30 BEGIN COLLECTION
M  V30 MDLV30/STERAC1 ATOMS=(1 7)
M  V30 END COLLECTION
M  V30 END CTAB
M  END
>  <Molecule Name>
Cinnamic acid, tetrahydrofurfuryl ester

>  <Activity Label>
0

>  <SMILES>
O=C(C=Cc1ccccc1)OCC1OCCC1

>  <Molecular Formula>
C14H16O3

>  <InChIKey>
QCMSQCLNALBZOD-UHFFFAOYSA-N

>  <Repellency>
Inactive

>  <Reference DOI>
10.3390/toxics11100837

>  <Target Organism>
Not applied

$$$$
Compound 824
Actelion Java MolfileCreator 2.0

  0  0  0  0  0  0              0 V3000
M  V30 BEGIN CTAB
M  V30 COUNTS 17 18 0 0 0
M  V30 BEGIN ATOM
M  V30 1 O 0.0 0.0 0.0 0
M  V30 2 C 1.2982 -0.7553 0.0 0
M  V30 3 O 2.5964 0.0 0.0 0
M  V30 4 C 1.2982 -2.2542 0.0 0
M  V30 5 C 3.8946 -0.7553 0.0 0
M  V30 6 C 0.0826 -3.1393 0.0 0
M  V30 7 C 2.5138 -3.1393 0.0 0
M  V30 8 C 2.6318 -1.5696 0.0 0
M  V30 9 O -0.1534 -1.664 0.0 0
M  V30 10 C -1.3454 -2.679 0.0 0
M  V30 11 C 0.5428 -4.5674 0.0 0
M  V30 12 C 2.0535 -4.5674 0.0 0
M  V30 13 C -1.6522 -1.2156 0.0 0
M  V30 14 C -2.4548 -3.6822 0.0 0
M  V30 15 C -3.0803 -0.7553 0.0 0
M  V30 16 C -3.8828 -3.2219 0.0 0
M  V30 17 C -4.1897 -1.7585 0.0 0
M  V30 END ATOM
M  V30 BEGIN BOND
M  V30 1 2 1 2
M  V30 2 1 2 3
M  V30 3 1 2 4
M  V30 4 1 3 5
M  V30 5 1 4 6
M  V30 6 1 4 7
M  V30 7 1 4 8
M  V30 8 1 6 9
M  V30 9 1 6 10
M  V30 10 1 6 11
M  V30 11 1 7 12
M  V30 12 2 10 13
M  V30 13 1 10 14
M  V30 14 1 13 15
M  V30 15 2 14 16
M  V30 16 2 15 17
M  V30 17 1 11 12
M  V30 18 1 16 17
M  V30 END BOND
M  V30 END CTAB
M  END
>  <Molecule Name>
1-Methyl-2-hydroxy-2-phenyl-cyclopentanecarboxylic acid, methyl ester

>  <Activity Label>
0

>  <SMILES>
CC(CCC1)(C1(c1ccccc1)O)C(OC)=O

>  <Molecular Formula>
C14H18O3

>  <InChIKey>
NZAOMKWSHDFYFU-UHFFFAOYSA-N

>  <Repellency>
Inactive

>  <Reference DOI>
10.3390/toxics11100837

>  <Target Organism>
Not applied

$$$$
Compound 825
Actelion Java MolfileCreator 2.0

  0  0  0  0  0  0              0 V3000
M  V30 BEGIN CTAB
M  V30 COUNTS 17 18 0 0 0
M  V30 BEGIN ATOM
M  V30 1 O 0.0 0.0 0.0 0
M  V30 2 C 0.3891 1.4505 0.0 0
M  V30 3 O 1.8396 1.8396 0.0 0
M  V30 4 C -0.6721 2.5118 0.0 0
M  V30 5 C 2.901 0.7783 0.0 0
M  V30 6 O -0.6721 4.0095 0.0 0
M  V30 7 C 0.625 3.2548 0.0 0
M  V30 8 C -1.4269 1.2146 0.0 0
M  V30 9 C 4.3515 1.1674 0.0 0
M  V30 10 C 2.5118 -0.6721 0.0 0
M  V30 11 C 2.1227 3.2548 0.0 0
M  V30 12 C -2.9246 1.2146 0.0 0
M  V30 13 C 5.4128 0.1061 0.0 0
M  V30 14 C 3.5732 -1.7335 0.0 0
M  V30 15 C -3.6793 -0.0825 0.0 0
M  V30 16 C -3.6675 2.5118 0.0 0
M  V30 17 C 5.0237 -1.3443 0.0 0
M  V30 END ATOM
M  V30 BEGIN BOND
M  V30 1 2 1 2
M  V30 2 1 2 3
M  V30 3 1 2 4
M  V30 4 1 3 5
M  V30 5 1 4 6
M  V30 6 1 4 7
M  V30 7 1 4 8
M  V30 8 1 5 9
M  V30 9 1 5 10
M  V30 10 1 7 11
M  V30 11 1 8 12
M  V30 12 1 9 13
M  V30 13 1 10 14
M  V30 14 1 12 15
M  V30 15 1 12 16
M  V30 16 1 13 17
M  V30 17 1 6 7
M  V30 18 1 14 17
M  V30 END BOND
M  V30 END CTAB
M  END
>  <Molecule Name>
Methyl-iso-butylglycidic acid, cyclohexyl ester

>  <Activity Label>
0

>  <SMILES>
CC(C)CC1(C(OC2CCCCC2)=O)OC1C

>  <Molecular Formula>
C14H24O3

>  <InChIKey>
YHMSSSDEAABFOA-UHFFFAOYSA-N

>  <Repellency>
Inactive

>  <Reference DOI>
10.3390/toxics11100837

>  <Target Organism>
Not applied

$$$$
Compound 826
Actelion Java MolfileCreator 2.0

  0  0  0  0  0  0              0 V3000
M  V30 BEGIN CTAB
M  V30 COUNTS 17 18 0 0 0
M  V30 BEGIN ATOM
M  V30 1 Cl 0.0 0.0 0.0 0
M  V30 2 C 1.3005 0.7448 0.0 0
M  V30 3 C 1.3005 2.2463 0.0 0
M  V30 4 C 2.601 0.0 0.0 0
M  V30 5 C 2.601 2.9912 0.0 0
M  V30 6 C 3.9015 0.7448 0.0 0
M  V30 7 C 3.9015 2.2345 0.0 0
M  V30 8 O 5.2021 2.9793 0.0 0
M  V30 9 S 6.5026 2.2345 0.0 0
M  V30 10 O 5.7577 0.934 0.0 0
M  V30 11 O 7.2593 0.934 0.0 0
M  V30 12 C 7.8031 2.9793 0.0 0
M  V30 13 C 9.1036 2.2345 0.0 0
M  V30 14 C 7.8031 4.4809 0.0 0
M  V30 15 C 10.4042 2.9912 0.0 0
M  V30 16 C 9.1036 5.2375 0.0 0
M  V30 17 C 10.4042 4.4927 0.0 0
M  V30 END ATOM
M  V30 BEGIN BOND
M  V30 1 1 1 2
M  V30 2 2 2 3
M  V30 3 1 2 4
M  V30 4 1 3 5
M  V30 5 2 4 6
M  V30 6 2 5 7
M  V30 7 1 7 8
M  V30 8 1 8 9
M  V30 9 2 9 10
M  V30 10 2 9 11
M  V30 11 1 9 12
M  V30 12 2 12 13
M  V30 13 1 12 14
M  V30 14 1 13 15
M  V30 15 2 14 16
M  V30 16 2 15 17
M  V30 17 1 6 7
M  V30 18 1 16 17
M  V30 END BOND
M  V30 END CTAB
M  END
>  <Molecule Name>
Benzenesulfonic acid, p-chlorophenyl ester

>  <Activity Label>
0

>  <SMILES>
O=S(c1ccccc1)(Oc(cc1)ccc1Cl)=O

>  <Molecular Formula>
C12H9O3ClS

>  <InChIKey>
SPJOZZSIXXJYBT-UHFFFAOYSA-N

>  <Repellency>
Inactive

>  <Reference DOI>
10.3390/toxics11100837

>  <Target Organism>
Not applied

$$$$
Compound 827
Actelion Java MolfileCreator 2.0

  0  0  0  0  0  0              0 V3000
M  V30 BEGIN CTAB
M  V30 COUNTS 17 18 0 0 0
M  V30 BEGIN ATOM
M  V30 1 O 0.0 0.0 0.0 0
M  V30 2 C -1.216 0.8854 0.0 0
M  V30 3 C -0.4604 -1.4285 0.0 0
M  V30 4 O -2.432 0.0 0.0 0
M  V30 5 C -1.216 2.3848 0.0 0
M  V30 6 C -1.9598 -1.4285 0.0 0
M  V30 7 C 0.425 -2.6446 0.0 0
M  V30 8 C -2.5147 3.1286 0.0 0
M  V30 9 C 0.0826 3.1404 0.0 0
M  V30 10 C -2.5147 4.628 0.0 0
M  V30 11 C 0.0826 4.6398 0.0 0
M  V30 12 C -1.216 5.3836 0.0 0
M  V30 13 N -1.216 6.883 0.0 0
M  V30 14 C 0.0826 7.6268 0.0 0
M  V30 15 C -2.5147 7.6268 0.0 0
M  V30 16 C 1.3813 6.883 0.0 0
M  V30 17 C -3.8134 6.883 0.0 0
M  V30 END ATOM
M  V30 BEGIN BOND
M  V30 1 1 1 2
M  V30 2 1 1 3
M  V30 3 1 2 4
M  V30 4 1 2 5
M  V30 5 1 3 6
M  V30 6 1 3 7
M  V30 7 2 5 8
M  V30 8 1 5 9
M  V30 9 1 8 10
M  V30 10 2 9 11
M  V30 11 2 10 12
M  V30 12 1 12 13
M  V30 13 1 13 14
M  V30 14 1 13 15
M  V30 15 1 14 16
M  V30 16 1 15 17
M  V30 17 1 4 6
M  V30 18 1 11 12
M  V30 END BOND
M  V30 END CTAB
M  END
>  <Molecule Name>
2-(p-Diethylaminophenyl)-4-methyl-1,3-dioxolane

>  <Activity Label>
0

>  <SMILES>
CCN(CC)c1ccc(C2OC(C)CO2)cc1

>  <Molecular Formula>
C14H21NO2

>  <InChIKey>
LPYDWCRHMGHNFL-UHFFFAOYSA-N

>  <Repellency>
Inactive

>  <Reference DOI>
10.3390/toxics11100837

>  <Target Organism>
Not applied

$$$$
Compound 828
Actelion Java MolfileCreator 2.0

  0  0  0  0  0  0              0 V3000
M  V30 BEGIN CTAB
M  V30 COUNTS 17 18 0 0 0
M  V30 BEGIN ATOM
M  V30 1 O 0.0 0.0 0.0 0
M  V30 2 C -1.1104 1.0041 0.0 0
M  V30 3 N -0.9568 2.4925 0.0 0
M  V30 4 C -2.5752 0.6969 0.0 0
M  V30 5 C -2.3271 3.1068 0.0 0
M  V30 6 C 0.3425 3.2485 0.0 0
M  V30 7 C -3.3194 1.9963 0.0 0
M  V30 8 C -3.3312 -0.6024 0.0 0
M  V30 9 O -2.6343 4.5716 0.0 0
M  V30 10 C 1.642 2.4925 0.0 0
M  V30 11 C -4.8197 1.9963 0.0 0
M  V30 12 C -4.8315 -0.6024 0.0 0
M  V30 13 C 2.9414 3.2485 0.0 0
M  V30 14 C -5.5757 0.6969 0.0 0
M  V30 15 C -5.5875 -1.9018 0.0 0
M  V30 16 C 4.2408 2.4925 0.0 0
M  V30 17 C 5.5403 3.2485 0.0 0
M  V30 END ATOM
M  V30 BEGIN BOND
M  V30 1 2 1 2
M  V30 2 1 2 3
M  V30 3 1 2 4
M  V30 4 1 3 5
M  V30 5 1 3 6
M  V30 6 1 4 7
M  V30 7 1 4 8
M  V30 8 2 5 9
M  V30 9 1 6 10
M  V30 10 1 7 11
M  V30 11 1 8 12
M  V30 12 1 10 13
M  V30 13 1 11 14
M  V30 14 1 12 15
M  V30 15 1 13 16
M  V30 16 1 16 17
M  V30 17 1 5 7
M  V30 18 2 12 14
M  V30 END BOND
M  V30 END CTAB
M  END
>  <Molecule Name>
N-Amyl-4-methyl-1,2,3,6-tetrahydrophthalimide

>  <Activity Label>
0

>  <SMILES>
CCCCCN(C(C1C2CC(C)=CC1)=O)C2=O

>  <Molecular Formula>
C14H21NO2

>  <InChIKey>
BCYXVTJDFHNYEG-UHFFFAOYSA-N

>  <Repellency>
Inactive

>  <Reference DOI>
10.3390/toxics11100837

>  <Target Organism>
Not applied

$$$$
Compound 829
Actelion Java MolfileCreator 2.0

  0  0  0  0  0  0              0 V3000
M  V30 BEGIN CTAB
M  V30 COUNTS 17 18 0 0 0
M  V30 BEGIN ATOM
M  V30 1 O 0.0 0.0 0.0 0
M  V30 2 C -1.1104 1.0041 0.0 0
M  V30 3 N -0.9568 2.4925 0.0 0
M  V30 4 C -2.5752 0.6969 0.0 0
M  V30 5 C -2.3271 3.1068 0.0 0
M  V30 6 C 0.3425 3.2485 0.0 0
M  V30 7 C -3.3194 1.9963 0.0 0
M  V30 8 C -3.3312 -0.6024 0.0 0
M  V30 9 O -2.6343 4.5716 0.0 0
M  V30 10 C 1.642 2.4925 0.0 0
M  V30 11 C -4.8197 1.9963 0.0 0
M  V30 12 C -4.8315 -0.6024 0.0 0
M  V30 13 C 2.9414 3.2485 0.0 0
M  V30 14 C -5.5757 0.6969 0.0 0
M  V30 15 C -5.5875 -1.9018 0.0 0
M  V30 16 C 4.2408 2.4925 0.0 0
M  V30 17 C 5.5403 3.2485 0.0 0
M  V30 END ATOM
M  V30 BEGIN BOND
M  V30 1 2 1 2
M  V30 2 1 2 3
M  V30 3 1 2 4
M  V30 4 1 3 5
M  V30 5 1 3 6
M  V30 6 1 4 7
M  V30 7 1 4 8
M  V30 8 2 5 9
M  V30 9 1 6 10
M  V30 10 1 7 11
M  V30 11 1 8 12
M  V30 12 1 10 13
M  V30 13 1 11 14
M  V30 14 1 12 15
M  V30 15 1 13 16
M  V30 16 1 16 17
M  V30 17 1 5 7
M  V30 18 1 12 14
M  V30 END BOND
M  V30 END CTAB
M  END
>  <Molecule Name>
N-Amyl-4-methylhexahydrophthalimide

>  <Activity Label>
0

>  <SMILES>
CCCCCN(C(C1C2CC(C)CC1)=O)C2=O

>  <Molecular Formula>
C14H23NO2

>  <InChIKey>
PXDOHJXZNRIJRD-UHFFFAOYSA-N

>  <Repellency>
Inactive

>  <Reference DOI>
10.3390/toxics11100837

>  <Target Organism>
Not applied

$$$$
Compound 830
Actelion Java MolfileCreator 2.0

  0  0  0  0  0  0              0 V3000
M  V30 BEGIN CTAB
M  V30 COUNTS 17 18 0 0 0
M  V30 BEGIN ATOM
M  V30 1 O 0.0 0.0 0.0 0
M  V30 2 C 1.3002 0.7446 0.0 0
M  V30 3 N 2.6005 0.0 0.0 0
M  V30 4 C 1.3002 2.2458 0.0 0
M  V30 5 C 2.6005 -1.5012 0.0 0
M  V30 6 C 3.9007 0.7446 0.0 0
M  V30 7 C 2.6005 2.9905 0.0 0
M  V30 8 C 0.0 2.9905 0.0 0
M  V30 9 C 1.3002 -2.2458 0.0 0
M  V30 10 C 3.9007 -2.2458 0.0 0
M  V30 11 C 5.201 0.0 0.0 0
M  V30 12 C 2.6005 4.4917 0.0 0
M  V30 13 C 0.0 4.4917 0.0 0
M  V30 14 C 1.3002 -3.7471 0.0 0
M  V30 15 C 3.9007 -3.7471 0.0 0
M  V30 16 C 1.3002 5.2364 0.0 0
M  V30 17 C 2.6005 -4.5036 0.0 0
M  V30 END ATOM
M  V30 BEGIN BOND
M  V30 1 2 1 2
M  V30 2 1 2 3
M  V30 3 1 2 4
M  V30 4 1 3 5
M  V30 5 1 3 6
M  V30 6 2 4 7
M  V30 7 1 4 8
M  V30 8 2 5 9
M  V30 9 1 5 10
M  V30 10 1 6 11
M  V30 11 1 7 12
M  V30 12 2 8 13
M  V30 13 1 9 14
M  V30 14 2 10 15
M  V30 15 2 12 16
M  V30 16 2 14 17
M  V30 17 1 13 16
M  V30 18 1 15 17
M  V30 END BOND
M  V30 END CTAB
M  END
>  <Molecule Name>
N-Ethylbenzanilide

>  <Activity Label>
0

>  <SMILES>
CCN(C(c1ccccc1)=O)c1ccccc1

>  <Molecular Formula>
C15H15NO

>  <InChIKey>
VSURRQZMKWVYIC-UHFFFAOYSA-N

>  <Repellency>
Inactive

>  <Reference DOI>
10.3390/toxics11100837

>  <Target Organism>
Not applied

$$$$
Compound 831
Actelion Java MolfileCreator 2.0

  0  0  0  0  0  0              0 V3000
M  V30 BEGIN CTAB
M  V30 COUNTS 17 18 0 0 0
M  V30 BEGIN ATOM
M  V30 1 O 0.0 0.0 0.0 0
M  V30 2 C -1.3002 0.7446 0.0 0
M  V30 3 N -1.3002 2.2458 0.0 0
M  V30 4 C -2.6005 0.0 0.0 0 CFG=1
M  V30 5 C 0.0 2.9905 0.0 0
M  V30 6 C -2.6005 2.9905 0.0 0
M  V30 7 C -2.6005 -1.5012 0.0 0
M  V30 8 C -3.9007 0.7446 0.0 0
M  V30 9 C 0.0 4.4917 0.0 0
M  V30 10 C -2.6005 4.4917 0.0 0
M  V30 11 C -3.9007 -2.2458 0.0 0
M  V30 12 C -1.3002 -2.2458 0.0 0
M  V30 13 C -5.201 0.0 0.0 0
M  V30 14 C -1.3002 5.2364 0.0 0
M  V30 15 C -3.9007 -3.7471 0.0 0
M  V30 16 C -1.3002 -3.7471 0.0 0
M  V30 17 C -2.6005 -4.5036 0.0 0
M  V30 END ATOM
M  V30 BEGIN BOND
M  V30 1 2 1 2
M  V30 2 1 2 3
M  V30 3 1 2 4
M  V30 4 1 3 5
M  V30 5 1 3 6
M  V30 6 1 4 7
M  V30 7 1 4 8 CFG=1
M  V30 8 1 5 9
M  V30 9 1 6 10
M  V30 10 2 7 11
M  V30 11 1 7 12
M  V30 12 1 8 13
M  V30 13 1 9 14
M  V30 14 1 11 15
M  V30 15 2 12 16
M  V30 16 2 15 17
M  V30 17 1 10 14
M  V30 18 1 16 17
M  V30 END BOND
M  V30 BEGIN COLLECTION
M  V30 MDLV30/STERAC1 ATOMS=(1 4)
M  V30 END COLLECTION
M  V30 END CTAB
M  END
>  <Molecule Name>
N-(alpha-Phenylbutyryl) piperidine

>  <Activity Label>
0

>  <SMILES>
CCC(C(N1CCCCC1)=O)c1ccccc1

>  <Molecular Formula>
C15H21NO

>  <InChIKey>
DYPHKYKMYUXPIA-UHFFFAOYSA-N

>  <Repellency>
Inactive

>  <Reference DOI>
10.3390/toxics11100837

>  <Target Organism>
Not applied

$$$$
Compound 832
Actelion Java MolfileCreator 2.0

  0  0  0  0  0  0              0 V3000
M  V30 BEGIN CTAB
M  V30 COUNTS 17 14 0 0 0
M  V30 BEGIN ATOM
M  V30 1 O 0.0 0.0 0.0 0
M  V30 2 C 0.0 -1.502 0.0 0
M  V30 3 O -1.3009 -2.247 0.0 0
M  V30 4 C 1.3009 -2.247 0.0 0
M  V30 5 C 2.6018 -1.502 0.0 0
M  V30 6 O 7.4745 -3.5953 0.0 0
M  V30 7 C 5.9725 -3.5953 0.0 0
M  V30 8 O 5.2156 -2.2944 0.0 0
M  V30 9 C 5.2274 -4.8963 0.0 0
M  V30 10 C 5.9725 -6.1972 0.0 0
M  V30 11 O 1.9869 -7.5691 0.0 0
M  V30 12 C 0.5795 -7.0606 0.0 0
M  V30 13 C 0.3193 -5.5822 0.0 0
M  V30 14 C 1.4665 -4.6124 0.0 0
M  V30 15 C -1.088 -5.0737 0.0 0
M  V30 16 C 2.8739 -5.121 0.0 0
M  V30 17 C -2.2352 -6.0435 0.0 0
M  V30 END ATOM
M  V30 BEGIN BOND
M  V30 1 2 1 2
M  V30 2 1 2 3
M  V30 3 1 2 4
M  V30 4 1 4 5
M  V30 5 2 6 7
M  V30 6 1 7 8
M  V30 7 1 7 9
M  V30 8 1 9 10
M  V30 9 2 11 12
M  V30 10 1 12 13
M  V30 11 1 13 14
M  V30 12 1 13 15
M  V30 13 1 14 16
M  V30 14 1 15 17
M  V30 END BOND
M  V30 END CTAB
M  END
>  <Molecule Name>
2-Ethylbutyraldehyde dipropionate

>  <Activity Label>
0

>  <SMILES>
CCC(CC)C=O.CCC(O)=O.CCC(O)=O

>  <Molecular Formula>
C3H6O2.C3H6O2.C6H12O

>  <InChIKey>
CSOFPFNHLDSEFT-UHFFFAOYSA-N

>  <Repellency>
Inactive

>  <Reference DOI>
10.3390/toxics11100837

>  <Target Organism>
Not applied

$$$$
Compound 833
Actelion Java MolfileCreator 2.0

  0  0  0  0  0  0              0 V3000
M  V30 BEGIN CTAB
M  V30 COUNTS 17 17 0 0 0
M  V30 BEGIN ATOM
M  V30 1 O 0.0 0.0 0.0 0
M  V30 2 C 0.0 -1.4995 0.0 0
M  V30 3 O 1.2988 -2.2552 0.0 0
M  V30 4 C -1.2988 -2.2552 0.0 0
M  V30 5 C 2.5976 -1.5113 0.0 0
M  V30 6 C -2.5976 -1.5113 0.0 0
M  V30 7 C -1.2988 -3.7547 0.0 0
M  V30 8 C 3.8964 -2.267 0.0 0
M  V30 9 O -2.5976 -0.0118 0.0 0
M  V30 10 O -3.8964 -2.267 0.0 0
M  V30 11 C -2.5976 -4.5104 0.0 0
M  V30 12 C 0.0 -4.4986 0.0 0
M  V30 13 C -5.1952 -1.5231 0.0 0
M  V30 14 C -2.5976 -6.0099 0.0 0
M  V30 15 C 0.0 -5.9981 0.0 0
M  V30 16 C -6.494 -2.2788 0.0 0
M  V30 17 C -1.2988 -6.7538 0.0 0
M  V30 END ATOM
M  V30 BEGIN BOND
M  V30 1 2 1 2
M  V30 2 1 2 3
M  V30 3 1 2 4
M  V30 4 1 3 5
M  V30 5 1 4 6
M  V30 6 1 4 7
M  V30 7 1 5 8
M  V30 8 2 6 9
M  V30 9 1 6 10
M  V30 10 1 7 11
M  V30 11 1 7 12
M  V30 12 1 10 13
M  V30 13 1 11 14
M  V30 14 1 12 15
M  V30 15 1 13 16
M  V30 16 1 14 17
M  V30 17 1 15 17
M  V30 END BOND
M  V30 END CTAB
M  END
>  <Molecule Name>
Cyclohexylmalonic acid, diethyl ester

>  <Activity Label>
0

>  <SMILES>
CCOC(C(C1CCCCC1)C(OCC)=O)=O

>  <Molecular Formula>
C13H22O4

>  <InChIKey>
FUOPELSDMOAUBM-UHFFFAOYSA-N

>  <Repellency>
Inactive

>  <Reference DOI>
10.3390/toxics11100837

>  <Target Organism>
Not applied

$$$$
Compound 834
Actelion Java MolfileCreator 2.0

  0  0  0  0  0  0              0 V3000
M  V30 BEGIN CTAB
M  V30 COUNTS 17 17 0 0 0
M  V30 BEGIN ATOM
M  V30 1 O 0.0 0.0 0.0 0
M  V30 2 C 0.0 1.4976 0.0 0
M  V30 3 O -1.2971 2.2523 0.0 0
M  V30 4 C 1.2971 2.2523 0.0 0
M  V30 5 C -2.5943 1.4976 0.0 0
M  V30 6 C 2.5943 1.4976 0.0 0
M  V30 7 C 1.2971 3.7499 0.0 0
M  V30 8 C -3.8914 2.2523 0.0 0
M  V30 9 O 2.5943 0.0 0.0 0
M  V30 10 C 3.8914 2.2523 0.0 0
M  V30 11 C 2.5943 4.5046 0.0 0
M  V30 12 O -5.1886 1.4976 0.0 0
M  V30 13 C 3.8914 3.7499 0.0 0
M  V30 14 C -6.4857 2.2523 0.0 0
M  V30 15 C -7.7829 1.4976 0.0 0
M  V30 16 C -9.08 2.2523 0.0 0
M  V30 17 C -10.3772 1.4976 0.0 0
M  V30 END ATOM
M  V30 BEGIN BOND
M  V30 1 2 1 2
M  V30 2 1 2 3
M  V30 3 1 2 4
M  V30 4 1 3 5
M  V30 5 2 4 6
M  V30 6 1 4 7
M  V30 7 1 5 8
M  V30 8 1 6 9
M  V30 9 1 6 10
M  V30 10 2 7 11
M  V30 11 1 8 12
M  V30 12 2 10 13
M  V30 13 1 12 14
M  V30 14 1 14 15
M  V30 15 1 15 16
M  V30 16 1 16 17
M  V30 17 1 11 13
M  V30 END BOND
M  V30 END CTAB
M  END
>  <Molecule Name>
Salicylic acid, 2-n-butoxyethyl ester

>  <Activity Label>
0

>  <SMILES>
CCCCOCCOC(c(cccc1)c1O)=O

>  <Molecular Formula>
C13H18O4

>  <InChIKey>
VFZSCCHTFKBBRO-UHFFFAOYSA-N

>  <Repellency>
Inactive

>  <Reference DOI>
10.3390/toxics11100837

>  <Target Organism>
Not applied

$$$$
Compound 835
Actelion Java MolfileCreator 2.0

  0  0  0  0  0  0              0 V3000
M  V30 BEGIN CTAB
M  V30 COUNTS 17 17 0 0 0
M  V30 BEGIN ATOM
M  V30 1 O 0.0 0.0 0.0 0
M  V30 2 C 0.0 -1.4995 0.0 0
M  V30 3 O -1.2988 -2.2552 0.0 0
M  V30 4 C 1.2988 -2.2552 0.0 0
M  V30 5 C -2.5976 -1.5113 0.0 0
M  V30 6 C 2.5976 -1.4995 0.0 0
M  V30 7 C 1.2988 -3.7547 0.0 0
M  V30 8 C -3.8964 -2.267 0.0 0
M  V30 9 C 2.5976 0.0 0.0 0
M  V30 10 C 3.8964 -2.2434 0.0 0
M  V30 11 C 2.5976 -4.4986 0.0 0
M  V30 12 C -5.1952 -1.5231 0.0 0
M  V30 13 O 1.2988 0.7438 0.0 0
M  V30 14 O 3.8964 0.7556 0.0 0
M  V30 15 C 3.8964 -3.7429 0.0 0
M  V30 16 C -6.494 -2.2788 0.0 0
M  V30 17 C 3.8964 2.2552 0.0 0
M  V30 END ATOM
M  V30 BEGIN BOND
M  V30 1 2 1 2
M  V30 2 1 2 3
M  V30 3 1 2 4
M  V30 4 1 3 5
M  V30 5 2 4 6
M  V30 6 1 4 7
M  V30 7 1 5 8
M  V30 8 1 6 9
M  V30 9 1 6 10
M  V30 10 2 7 11
M  V30 11 1 8 12
M  V30 12 2 9 13
M  V30 13 1 9 14
M  V30 14 2 10 15
M  V30 15 1 12 16
M  V30 16 1 14 17
M  V30 17 1 11 15
M  V30 END BOND
M  V30 END CTAB
M  END
>  <Molecule Name>
Phthalic acid, methyl butyl ester

>  <Activity Label>
0

>  <SMILES>
CCCCOC(c(cccc1)c1C(OC)=O)=O

>  <Molecular Formula>
C13H16O4

>  <InChIKey>
XXFSYINDUHLBIL-UHFFFAOYSA-N

>  <Repellency>
Inactive

>  <Reference DOI>
10.3390/toxics11100837

>  <Target Organism>
Not applied

$$$$
Compound 836
Actelion Java MolfileCreator 2.0

  0  0  0  0  0  0              0 V3000
M  V30 BEGIN CTAB
M  V30 COUNTS 17 17 0 0 0
M  V30 BEGIN ATOM
M  V30 1 O 0.0 0.0 0.0 0
M  V30 2 C 0.0 -1.4997 0.0 0
M  V30 3 O -1.2989 -2.2554 0.0 0
M  V30 4 C 1.2989 -2.2554 0.0 0 CFG=1
M  V30 5 C -2.5979 -1.5115 0.0 0
M  V30 6 O 2.0547 -3.5544 0.0 0
M  V30 7 C 2.5979 -1.5115 0.0 0
M  V30 8 C 0.555 -3.5544 0.0 0
M  V30 9 C -3.8968 -2.2672 0.0 0
M  V30 10 C 3.8968 -2.2672 0.0 0
M  V30 11 O 3.8968 -3.7669 0.0 0
M  V30 12 C 5.1958 -1.5233 0.0 0
M  V30 13 C 6.4947 -2.279 0.0 0
M  V30 14 C 5.1958 -0.0236 0.0 0
M  V30 15 C 7.7937 -1.5351 0.0 0
M  V30 16 C 6.4947 0.7203 0.0 0
M  V30 17 C 7.7937 -0.0354 0.0 0
M  V30 END ATOM
M  V30 BEGIN BOND
M  V30 1 2 1 2
M  V30 2 1 2 3
M  V30 3 1 2 4
M  V30 4 1 3 5
M  V30 5 1 4 6 CFG=3
M  V30 6 1 4 7
M  V30 7 1 4 8
M  V30 8 1 5 9
M  V30 9 1 7 10
M  V30 10 2 10 11
M  V30 11 1 10 12
M  V30 12 2 12 13
M  V30 13 1 12 14
M  V30 14 1 13 15
M  V30 15 2 14 16
M  V30 16 2 15 17
M  V30 17 1 16 17
M  V30 END BOND
M  V30 BEGIN COLLECTION
M  V30 MDLV30/STERAC1 ATOMS=(1 4)
M  V30 END COLLECTION
M  V30 END CTAB
M  END
>  <Molecule Name>
Benzoyl-alpha-hydroxy-isobutyric acid, ethyl ester

>  <Activity Label>
0

>  <SMILES>
CCOC(C(C)(CC(c1ccccc1)=O)O)=O

>  <Molecular Formula>
C13H16O4

>  <InChIKey>
IGWZXLBFEFTLAR-UHFFFAOYSA-N

>  <Repellency>
Inactive

>  <Reference DOI>
10.3390/toxics11100837

>  <Target Organism>
Not applied

$$$$
Compound 837
Actelion Java MolfileCreator 2.0

  0  0  0  0  0  0              0 V3000
M  V30 BEGIN CTAB
M  V30 COUNTS 17 17 0 0 0
M  V30 BEGIN ATOM
M  V30 1 Cl 0.0 0.0 0.0 0
M  V30 2 C 1.2987 -0.7438 0.0 0
M  V30 3 C 1.2987 -2.2433 0.0 0
M  V30 4 C 2.5975 0.0 0.0 0
M  V30 5 O 0.0 -2.999 0.0 0
M  V30 6 C 2.5975 -2.999 0.0 0
M  V30 7 C 3.8963 -0.7438 0.0 0
M  V30 8 C -1.2987 -2.2551 0.0 0
M  V30 9 C 3.8963 -2.2551 0.0 0
M  V30 10 C -2.5975 -3.0108 0.0 0
M  V30 11 O -2.5975 -4.5103 0.0 0
M  V30 12 O -3.8963 -2.2669 0.0 0
M  V30 13 C -5.1951 -3.0226 0.0 0
M  V30 14 C -6.4939 -2.2787 0.0 0
M  V30 15 O -7.7927 -3.0344 0.0 0
M  V30 16 C -9.0915 -2.2906 0.0 0
M  V30 17 C -10.3903 -3.0462 0.0 0
M  V30 END ATOM
M  V30 BEGIN BOND
M  V30 1 1 1 2
M  V30 2 2 2 3
M  V30 3 1 2 4
M  V30 4 1 3 5
M  V30 5 1 3 6
M  V30 6 2 4 7
M  V30 7 1 5 8
M  V30 8 2 6 9
M  V30 9 1 8 10
M  V30 10 2 10 11
M  V30 11 1 10 12
M  V30 12 1 12 13
M  V30 13 1 13 14
M  V30 14 1 14 15
M  V30 15 1 15 16
M  V30 16 1 16 17
M  V30 17 1 7 9
M  V30 END BOND
M  V30 END CTAB
M  END
>  <Molecule Name>
2-Chlorophenoxyacetic acid, 2-ethoxyethyl ester

>  <Activity Label>
0

>  <SMILES>
CCOCCOC(COc(cccc1)c1Cl)=O

>  <Molecular Formula>
C12H15O4Cl

>  <InChIKey>
UHFXOTDULDBHKU-UHFFFAOYSA-N

>  <Repellency>
Inactive

>  <Reference DOI>
10.3390/toxics11100837

>  <Target Organism>
Not applied

$$$$
Compound 838
Actelion Java MolfileCreator 2.0

  0  0  0  0  0  0              0 V3000
M  V30 BEGIN CTAB
M  V30 COUNTS 17 17 0 0 0
M  V30 BEGIN ATOM
M  V30 1 S 0.0 0.0 0.0 0
M  V30 2 O -0.7447 -1.3003 0.0 0
M  V30 3 O 0.7565 -1.3003 0.0 0
M  V30 4 C -1.3003 0.7447 0.0 0
M  V30 5 C 1.3003 0.7447 0.0 0
M  V30 6 C -2.6006 0.0 0.0 0
M  V30 7 C 2.6006 0.0 0.0 0
M  V30 8 C -3.9009 0.7565 0.0 0
M  V30 9 C -2.6006 -1.5012 0.0 0
M  V30 10 O 2.6006 -1.5012 0.0 0
M  V30 11 O 3.9009 0.7447 0.0 0
M  V30 12 C -5.2012 0.0118 0.0 0
M  V30 13 C -3.9009 -2.2459 0.0 0
M  V30 14 C 5.2012 0.0 0.0 0
M  V30 15 C -5.2012 -1.4894 0.0 0
M  V30 16 C 6.5015 0.7447 0.0 0
M  V30 17 C 7.8018 0.0 0.0 0
M  V30 END ATOM
M  V30 BEGIN BOND
M  V30 1 2 1 2
M  V30 2 2 1 3
M  V30 3 1 1 4
M  V30 4 1 1 5
M  V30 5 1 4 6
M  V30 6 1 5 7
M  V30 7 2 6 8
M  V30 8 1 6 9
M  V30 9 2 7 10
M  V30 10 1 7 11
M  V30 11 1 8 12
M  V30 12 2 9 13
M  V30 13 1 11 14
M  V30 14 2 12 15
M  V30 15 1 14 16
M  V30 16 1 16 17
M  V30 17 1 13 15
M  V30 END BOND
M  V30 END CTAB
M  END
>  <Molecule Name>
Benzyl carbopropoxymethyl sulfone

>  <Activity Label>
0

>  <SMILES>
CCCOC(CS(Cc1ccccc1)(=O)=O)=O

>  <Molecular Formula>
C12H16O4S

>  <InChIKey>
CHTCVKCCZHFDMQ-UHFFFAOYSA-N

>  <Repellency>
Inactive

>  <Reference DOI>
10.3390/toxics11100837

>  <Target Organism>
Not applied

$$$$
Compound 839
Actelion Java MolfileCreator 2.0

  0  0  0  0  0  0              0 V3000
M  V30 BEGIN CTAB
M  V30 COUNTS 17 17 0 0 0
M  V30 BEGIN ATOM
M  V30 1 O 0.0 0.0 0.0 0
M  V30 2 C 0.0 1.4995 0.0 0
M  V30 3 O -1.2987 2.2433 0.0 0
M  V30 4 C 1.2987 2.2433 0.0 0
M  V30 5 C -2.5975 1.4877 0.0 0
M  V30 6 C 2.5975 1.4877 0.0 0
M  V30 7 C -3.8963 2.2315 0.0 0
M  V30 8 C 3.8963 2.2315 0.0 0
M  V30 9 C -5.1951 1.4759 0.0 0
M  V30 10 C 5.1951 1.4759 0.0 0
M  V30 11 C 6.4939 2.2197 0.0 0
M  V30 12 C 7.7927 1.464 0.0 0
M  V30 13 C 7.7927 -0.0354 0.0 0
M  V30 14 C 9.0915 2.2079 0.0 0
M  V30 15 C 9.0915 -0.791 0.0 0
M  V30 16 C 10.3903 1.464 0.0 0
M  V30 17 C 10.3903 -0.0472 0.0 0
M  V30 END ATOM
M  V30 BEGIN BOND
M  V30 1 2 1 2
M  V30 2 1 2 3
M  V30 3 1 2 4
M  V30 4 1 3 5
M  V30 5 2 4 6 CFG=2
M  V30 6 1 5 7
M  V30 7 1 6 8
M  V30 8 1 7 9
M  V30 9 1 8 10
M  V30 10 1 10 11
M  V30 11 1 11 12
M  V30 12 1 12 13
M  V30 13 1 12 14
M  V30 14 1 13 15
M  V30 15 1 14 16
M  V30 16 1 15 17
M  V30 17 1 16 17
M  V30 END BOND
M  V30 END CTAB
M  END
>  <Molecule Name>
6-Cyclohexylhexenoic acid, n-propyl ester

>  <Activity Label>
0

>  <SMILES>
CCCOC(C=CCCCC1CCCCC1)=O

>  <Molecular Formula>
C15H26O2

>  <InChIKey>
IWGVUQBRKNWJCG-UHFFFAOYSA-N

>  <Repellency>
Inactive

>  <Reference DOI>
10.3390/toxics11100837

>  <Target Organism>
Not applied

$$$$
Compound 840
Actelion Java MolfileCreator 2.0

  0  0  0  0  0  0              0 V3000
M  V30 BEGIN CTAB
M  V30 COUNTS 17 17 0 0 0
M  V30 BEGIN ATOM
M  V30 1 O 0.0 0.0 0.0 0
M  V30 2 C 0.0 1.5016 0.0 0
M  V30 3 O -1.3006 2.2464 0.0 0
M  V30 4 C 1.3006 2.2464 0.0 0
M  V30 5 C -2.6012 1.5016 0.0 0
M  V30 6 C 2.6012 1.5016 0.0 0
M  V30 7 C -3.9018 2.2583 0.0 0
M  V30 8 C -2.6012 0.0 0.0 0
M  V30 9 C 3.9018 2.2464 0.0 0
M  V30 10 C -5.2024 1.5134 0.0 0
M  V30 11 C -3.9018 -0.7448 0.0 0
M  V30 12 C 5.2024 1.5016 0.0 0
M  V30 13 C -5.2024 0.0118 0.0 0
M  V30 14 C 6.503 2.2464 0.0 0
M  V30 15 C 7.8036 1.5016 0.0 0
M  V30 16 C 9.1042 2.2464 0.0 0
M  V30 17 C 10.4048 1.5016 0.0 0
M  V30 END ATOM
M  V30 BEGIN BOND
M  V30 1 2 1 2
M  V30 2 1 2 3
M  V30 3 1 2 4
M  V30 4 1 3 5
M  V30 5 1 4 6
M  V30 6 1 5 7
M  V30 7 1 5 8
M  V30 8 1 6 9
M  V30 9 1 7 10
M  V30 10 1 8 11
M  V30 11 1 9 12
M  V30 12 1 10 13
M  V30 13 1 12 14
M  V30 14 1 14 15
M  V30 15 1 15 16
M  V30 16 1 16 17
M  V30 17 1 11 13
M  V30 END BOND
M  V30 END CTAB
M  END
>  <Molecule Name>
Pelargonic acid, cyclohexyl ester

>  <Activity Label>
0

>  <SMILES>
CCCCCCCCC(OC1CCCCC1)=O

>  <Molecular Formula>
C15H28O2

>  <InChIKey>
ZXGCFXPVWOGXMA-UHFFFAOYSA-N

>  <Repellency>
Inactive

>  <Reference DOI>
10.3390/toxics11100837

>  <Target Organism>
Not applied

$$$$
Compound 841
Actelion Java MolfileCreator 2.0

  0  0  0  0  0  0              0 V3000
M  V30 BEGIN CTAB
M  V30 COUNTS 17 17 0 0 0
M  V30 BEGIN ATOM
M  V30 1 O 0.0 0.0 0.0 0
M  V30 2 C 0.0 -1.4997 0.0 0
M  V30 3 O -1.2989 -2.2554 0.0 0
M  V30 4 C 1.2989 -2.2554 0.0 0
M  V30 5 C -2.5979 -1.5115 0.0 0
M  V30 6 C 1.2989 -3.7551 0.0 0
M  V30 7 C 2.5979 -1.5115 0.0 0
M  V30 8 C -3.8968 -2.2672 0.0 0 CFG=2
M  V30 9 C 2.5979 -4.5109 0.0 0
M  V30 10 C 3.8968 -2.2554 0.0 0
M  V30 11 C -5.1958 -1.5233 0.0 0
M  V30 12 C -3.8968 -3.7669 0.0 0
M  V30 13 C 3.8968 -3.7551 0.0 0
M  V30 14 C -6.4947 -2.279 0.0 0
M  V30 15 C -2.5979 -4.5109 0.0 0
M  V30 16 C -7.7937 -1.5351 0.0 0
M  V30 17 C -9.0926 -2.2908 0.0 0
M  V30 END ATOM
M  V30 BEGIN BOND
M  V30 1 2 1 2
M  V30 2 1 2 3
M  V30 3 1 2 4
M  V30 4 1 3 5
M  V30 5 2 4 6
M  V30 6 1 4 7
M  V30 7 1 8 5 CFG=1
M  V30 8 1 6 9
M  V30 9 2 7 10
M  V30 10 1 8 11
M  V30 11 1 8 12
M  V30 12 2 9 13
M  V30 13 1 11 14
M  V30 14 1 12 15
M  V30 15 1 14 16
M  V30 16 1 16 17
M  V30 17 1 10 13
M  V30 END BOND
M  V30 BEGIN COLLECTION
M  V30 MDLV30/STERAC1 ATOMS=(1 8)
M  V30 END COLLECTION
M  V30 END CTAB
M  END
>  <Molecule Name>
Benzoic acid, 2-ethylhexyl ester

>  <Activity Label>
0

>  <SMILES>
CCCCC(CC)COC(c1ccccc1)=O

>  <Molecular Formula>
C15H22O2

>  <InChIKey>
UADWUILHKRXHMM-UHFFFAOYSA-N

>  <Repellency>
Inactive

>  <Reference DOI>
10.3390/toxics11100837

>  <Target Organism>
Not applied

$$$$
Compound 842
Actelion Java MolfileCreator 2.0

  0  0  0  0  0  0              0 V3000
M  V30 BEGIN CTAB
M  V30 COUNTS 17 17 0 0 0
M  V30 BEGIN ATOM
M  V30 1 O 0.0 0.0 0.0 0
M  V30 2 C 0.0 -1.4997 0.0 0
M  V30 3 O -1.2989 -2.2554 0.0 0
M  V30 4 C 1.2989 -2.2554 0.0 0
M  V30 5 C 2.5979 -1.5115 0.0 0
M  V30 6 C 3.8968 -2.2672 0.0 0
M  V30 7 C 2.5979 -0.0118 0.0 0
M  V30 8 C 5.1958 -1.5233 0.0 0
M  V30 9 C 6.4947 -2.279 0.0 0
M  V30 10 C 7.7937 -1.5233 0.0 0
M  V30 11 C 6.4947 -3.7787 0.0 0
M  V30 12 C 9.0926 -2.2672 0.0 0
M  V30 13 C 8.5376 -0.2243 0.0 0
M  V30 14 C 7.0497 -0.2243 0.0 0
M  V30 15 C 7.7937 -4.5227 0.0 0
M  V30 16 C 5.1958 -4.5345 0.0 0
M  V30 17 C 9.0926 -3.7669 0.0 0
M  V30 END ATOM
M  V30 BEGIN BOND
M  V30 1 2 1 2
M  V30 2 1 2 3
M  V30 3 1 2 4
M  V30 4 1 4 5
M  V30 5 1 5 6
M  V30 6 1 5 7
M  V30 7 1 6 8
M  V30 8 1 8 9
M  V30 9 1 9 10
M  V30 10 1 9 11
M  V30 11 1 10 12
M  V30 12 1 10 13
M  V30 13 1 10 14
M  V30 14 1 11 15
M  V30 15 1 11 16
M  V30 16 1 12 17
M  V30 17 1 15 17
M  V30 END BOND
M  V30 END CTAB
M  END
>  <Molecule Name>
5-(2',2',6'-Trimethylcyclohexyl)-3-methylpentanoic acid

>  <Activity Label>
0

>  <SMILES>
CC(CCC1C(C)(C)CCCC1C)CC(O)=O

>  <Molecular Formula>
C15H28O2

>  <InChIKey>
QOXRIDIXKGTCSX-UHFFFAOYSA-N

>  <Repellency>
Inactive

>  <Reference DOI>
10.3390/toxics11100837

>  <Target Organism>
Not applied

$$$$
Compound 843
Actelion Java MolfileCreator 2.0

  0  0  0  0  0  0              0 V3000
M  V30 BEGIN CTAB
M  V30 COUNTS 17 17 0 0 0
M  V30 BEGIN ATOM
M  V30 1 O 0.0 0.0 0.0 0
M  V30 2 C 0.0 -1.499 0.0 0
M  V30 3 O -1.2983 -2.2544 0.0 0
M  V30 4 C 1.2983 -2.2544 0.0 0
M  V30 5 C -2.5967 -1.5108 0.0 0
M  V30 6 C 2.5967 -1.5108 0.0 0
M  V30 7 C -2.5967 -0.0118 0.0 0
M  V30 8 C -3.895 -2.2662 0.0 0
M  V30 9 C 3.895 -2.2662 0.0 0
M  V30 10 C 5.1934 -1.5226 0.0 0
M  V30 11 C 6.4917 -2.278 0.0 0
M  V30 12 C 7.7901 -1.5344 0.0 0
M  V30 13 C 9.0884 -2.2898 0.0 0
M  V30 14 C 7.7901 -0.0354 0.0 0
M  V30 15 C 10.3868 -1.5344 0.0 0
M  V30 16 C 9.0884 0.7199 0.0 0
M  V30 17 C 10.3868 -0.0354 0.0 0
M  V30 END ATOM
M  V30 BEGIN BOND
M  V30 1 2 1 2
M  V30 2 1 2 3
M  V30 3 1 2 4
M  V30 4 1 3 5
M  V30 5 2 4 6 CFG=2
M  V30 6 1 5 7
M  V30 7 1 5 8
M  V30 8 1 6 9
M  V30 9 1 9 10
M  V30 10 1 10 11
M  V30 11 1 11 12
M  V30 12 1 12 13
M  V30 13 1 12 14
M  V30 14 1 13 15
M  V30 15 1 14 16
M  V30 16 1 15 17
M  V30 17 1 16 17
M  V30 END BOND
M  V30 END CTAB
M  END
>  <Molecule Name>
6-Cyclohexylhexenoic acid, iso-propyl ester

>  <Activity Label>
0

>  <SMILES>
CC(C)OC(C=CCCCC1CCCCC1)=O

>  <Molecular Formula>
C15H26O2

>  <InChIKey>
PMEJSWKRYCOGFU-UHFFFAOYSA-N

>  <Repellency>
Inactive

>  <Reference DOI>
10.3390/toxics11100837

>  <Target Organism>
Not applied

$$$$
Compound 844
Actelion Java MolfileCreator 2.0

  0  0  0  0  0  0              0 V3000
M  V30 BEGIN CTAB
M  V30 COUNTS 17 17 0 0 0
M  V30 BEGIN ATOM
M  V30 1 O 0.0 0.0 0.0 0
M  V30 2 C 1.3001 -0.7564 0.0 0
M  V30 3 C 1.3001 -2.2575 0.0 0
M  V30 4 C 2.6003 -3.014 0.0 0
M  V30 5 C 0.0 -3.0021 0.0 0
M  V30 6 O 3.9004 -2.2693 0.0 0
M  V30 7 C 2.6003 -4.5151 0.0 0
M  V30 8 C 0.0 -4.5032 0.0 0
M  V30 9 C 5.2006 -3.014 0.0 0 CFG=2
M  V30 10 C 1.3001 -5.2597 0.0 0
M  V30 11 C 6.5008 -2.2693 0.0 0
M  V30 12 C 5.2006 -4.5151 0.0 0
M  V30 13 C 7.8009 -3.014 0.0 0
M  V30 14 C 9.1011 -2.2693 0.0 0
M  V30 15 C 10.4012 -3.014 0.0 0
M  V30 16 C 11.7014 -2.2693 0.0 0
M  V30 17 C 13.0016 -3.014 0.0 0
M  V30 END ATOM
M  V30 BEGIN BOND
M  V30 1 2 1 2
M  V30 2 1 2 3
M  V30 3 2 3 4
M  V30 4 1 3 5
M  V30 5 1 4 6
M  V30 6 1 4 7
M  V30 7 2 5 8
M  V30 8 1 6 9
M  V30 9 2 7 10
M  V30 10 1 9 11
M  V30 11 1 9 12 CFG=3
M  V30 12 1 11 13
M  V30 13 1 13 14
M  V30 14 1 14 15
M  V30 15 1 15 16
M  V30 16 1 16 17
M  V30 17 1 8 10
M  V30 END BOND
M  V30 BEGIN COLLECTION
M  V30 MDLV30/STERAC1 ATOMS=(1 9)
M  V30 END COLLECTION
M  V30 END CTAB
M  END
>  <Molecule Name>
o-sec-Octyloxybenzaldehyde

>  <Activity Label>
0

>  <SMILES>
CCCCCCC(C)Oc1c(C=O)cccc1

>  <Molecular Formula>
C15H22O2

>  <InChIKey>
UKFLFKORKJLMNO-UHFFFAOYSA-N

>  <Repellency>
Inactive

>  <Reference DOI>
10.3390/toxics11100837

>  <Target Organism>
Not applied

$$$$
Compound 845
Actelion Java MolfileCreator 2.0

  0  0  0  0  0  0              0 V3000
M  V30 BEGIN CTAB
M  V30 COUNTS 17 17 0 0 0
M  V30 BEGIN ATOM
M  V30 1 Cl 0.0 0.0 0.0 0
M  V30 2 C 0.0 -1.5002 0.0 0
M  V30 3 C -1.2994 -2.2562 0.0 0
M  V30 4 C 1.2994 -2.2562 0.0 0
M  V30 5 O -2.5988 -1.512 0.0 0
M  V30 6 C -1.2994 -3.7564 0.0 0
M  V30 7 C 1.2994 -3.7564 0.0 0
M  V30 8 C -3.8982 -2.2562 0.0 0
M  V30 9 Cl -2.5988 -4.5125 0.0 0
M  V30 10 C 0.0 -4.5007 0.0 0
M  V30 11 C 2.5988 -4.5125 0.0 0
M  V30 12 C -5.1976 -1.512 0.0 0
M  V30 13 C 2.5988 -6.0127 0.0 0
M  V30 14 C 4.099 -4.5125 0.0 0
M  V30 15 C 3.343 -3.2131 0.0 0
M  V30 16 O -6.497 -2.2562 0.0 0
M  V30 17 C 3.8982 -6.7687 0.0 0
M  V30 END ATOM
M  V30 BEGIN BOND
M  V30 1 1 1 2
M  V30 2 2 2 3
M  V30 3 1 2 4
M  V30 4 1 3 5
M  V30 5 1 3 6
M  V30 6 2 4 7
M  V30 7 1 5 8
M  V30 8 1 6 9
M  V30 9 2 6 10
M  V30 10 1 7 11
M  V30 11 1 8 12
M  V30 12 1 11 13
M  V30 13 1 11 14
M  V30 14 1 11 15
M  V30 15 1 12 16
M  V30 16 1 13 17
M  V30 17 1 7 10
M  V30 END BOND
M  V30 END CTAB
M  END
>  <Molecule Name>
2-(4-tert-Amyl-2, 6-dichlorophenoxy) ethanol

>  <Activity Label>
0

>  <SMILES>
CCC(C)(C)c(cc1Cl)cc(Cl)c1OCCO

>  <Molecular Formula>
C13H18O2Cl2

>  <InChIKey>
TXSXDFXBYBRSOU-UHFFFAOYSA-N

>  <Repellency>
Inactive

>  <Reference DOI>
10.3390/toxics11100837

>  <Target Organism>
Not applied

$$$$
Compound 846
Actelion Java MolfileCreator 2.0

  0  0  0  0  0  0              0 V3000
M  V30 BEGIN CTAB
M  V30 COUNTS 17 17 0 0 0
M  V30 BEGIN ATOM
M  V30 1 Cl 0.0 0.0 0.0 0
M  V30 2 C -1.3001 0.7446 0.0 0
M  V30 3 C -1.3001 2.2457 0.0 0
M  V30 4 C -2.6003 0.0 0.0 0
M  V30 5 O 0.0 2.9903 0.0 0
M  V30 6 C -2.6003 2.9903 0.0 0
M  V30 7 C -3.9004 0.7446 0.0 0
M  V30 8 C -3.9004 2.2339 0.0 0
M  V30 9 C -5.2006 0.0 0.0 0
M  V30 10 O -5.2006 2.9785 0.0 0
M  V30 11 C -5.2006 -1.501 0.0 0
M  V30 12 C -6.7017 0.0 0.0 0
M  V30 13 C -5.9452 1.3001 0.0 0
M  V30 14 C -6.5008 -2.2575 0.0 0
M  V30 15 C -7.2572 -0.9573 0.0 0
M  V30 16 C -7.8009 -3.014 0.0 0
M  V30 17 C -5.7443 -3.5577 0.0 0
M  V30 END ATOM
M  V30 BEGIN BOND
M  V30 1 1 1 2
M  V30 2 2 2 3
M  V30 3 1 2 4
M  V30 4 1 3 5
M  V30 5 1 3 6
M  V30 6 2 4 7
M  V30 7 2 6 8
M  V30 8 1 7 9
M  V30 9 1 8 10
M  V30 10 1 9 11
M  V30 11 1 9 12
M  V30 12 1 9 13
M  V30 13 1 11 14
M  V30 14 1 14 15
M  V30 15 1 14 16
M  V30 16 1 14 17
M  V30 17 1 7 8
M  V30 END BOND
M  V30 END CTAB
M  END
>  <Molecule Name>
4-Chloro-6-tert-octylresorcinol

>  <Activity Label>
0

>  <SMILES>
CC(C)(C)CC(C)(C)c(c(O)c1)cc(Cl)c1O

>  <Molecular Formula>
C14H21O2Cl

>  <InChIKey>
MRTCXUJZWLXCHR-UHFFFAOYSA-N

>  <Repellency>
Inactive

>  <Reference DOI>
10.3390/toxics11100837

>  <Target Organism>
Not applied

$$$$
Compound 847
Actelion Java MolfileCreator 2.0

  0  0  0  0  0  0              0 V3000
M  V30 BEGIN CTAB
M  V30 COUNTS 17 17 0 0 0
M  V30 BEGIN ATOM
M  V30 1 Cl 0.0 0.0 0.0 0
M  V30 2 C -1.2984 -0.7554 0.0 0
M  V30 3 C -2.5969 -0.0118 0.0 0
M  V30 4 O -3.8954 -0.7672 0.0 0
M  V30 5 C -5.1939 -0.0236 0.0 0
M  V30 6 C -6.4924 -0.779 0.0 0
M  V30 7 O -7.7909 -0.0354 0.0 0
M  V30 8 C -9.0894 -0.7909 0.0 0
M  V30 9 C -9.0894 -2.29 0.0 0
M  V30 10 C -10.3879 -0.0354 0.0 0
M  V30 11 C -10.3879 -3.0337 0.0 0
M  V30 12 C -7.7909 -3.0455 0.0 0
M  V30 13 C -11.6864 -0.779 0.0 0
M  V30 14 C -11.6864 -2.29 0.0 0
M  V30 15 C -7.7909 -4.5447 0.0 0
M  V30 16 C -6.4924 -2.3018 0.0 0
M  V30 17 C -12.9849 -0.0236 0.0 0
M  V30 END ATOM
M  V30 BEGIN BOND
M  V30 1 1 1 2
M  V30 2 1 2 3
M  V30 3 1 3 4
M  V30 4 1 4 5
M  V30 5 1 5 6
M  V30 6 1 6 7
M  V30 7 1 7 8
M  V30 8 2 8 9
M  V30 9 1 8 10
M  V30 10 1 9 11
M  V30 11 1 9 12
M  V30 12 2 10 13
M  V30 13 2 11 14
M  V30 14 1 12 15
M  V30 15 1 12 16
M  V30 16 1 13 17
M  V30 17 1 13 14
M  V30 END BOND
M  V30 END CTAB
M  END
>  <Molecule Name>
1-(2-Chloroethoxy)-2-(thymyloxy)ethane

>  <Activity Label>
0

>  <SMILES>
CC(C)c(ccc(C)c1)c1OCCOCCCl

>  <Molecular Formula>
C14H21O2Cl

>  <InChIKey>
KVOWTDRESFHSTG-UHFFFAOYSA-N

>  <Repellency>
Inactive

>  <Reference DOI>
10.3390/toxics11100837

>  <Target Organism>
Not applied

$$$$
Compound 848
Actelion Java MolfileCreator 2.0

  0  0  0  0  0  0              0 V3000
M  V30 BEGIN CTAB
M  V30 COUNTS 17 17 0 0 0
M  V30 BEGIN ATOM
M  V30 1 O 0.0 0.0 0.0 0
M  V30 2 C 1.4302 -0.4609 0.0 0
M  V30 3 O 1.7375 -1.9267 0.0 0
M  V30 4 C 2.5413 0.5437 0.0 0
M  V30 5 C 3.1678 -2.3877 0.0 0
M  V30 6 O 4.0071 0.2364 0.0 0
M  V30 7 C 2.3877 2.0331 0.0 0
M  V30 8 C 3.4751 -3.8534 0.0 0
M  V30 9 C 4.7517 1.5366 0.0 0
M  V30 10 O 3.7588 2.6477 0.0 0
M  V30 11 C 1.0874 2.7777 0.0 0
M  V30 12 C 6.1229 0.9219 0.0 0
M  V30 13 C 5.9693 2.4231 0.0 0
M  V30 14 O 1.0874 4.2789 0.0 0
M  V30 15 O -0.2127 2.0212 0.0 0
M  V30 16 C -1.513 2.7659 0.0 0
M  V30 17 C -2.8132 2.0094 0.0 0
M  V30 END ATOM
M  V30 BEGIN BOND
M  V30 1 2 1 2
M  V30 2 1 2 3
M  V30 3 1 2 4
M  V30 4 1 3 5
M  V30 5 1 4 6
M  V30 6 1 4 7
M  V30 7 1 5 8
M  V30 8 1 6 9
M  V30 9 1 7 10
M  V30 10 1 7 11
M  V30 11 1 9 12
M  V30 12 1 9 13
M  V30 13 2 11 14
M  V30 14 1 11 15
M  V30 15 1 15 16
M  V30 16 1 16 17
M  V30 17 1 9 10
M  V30 END BOND
M  V30 END CTAB
M  END
>  <Molecule Name>
4,5-Dicarboethoxy-2,2-dimethyl-1,3-dioxolane

>  <Activity Label>
0

>  <SMILES>
CCOC(C1OC(C)(C)OC1C(OCC)=O)=O

>  <Molecular Formula>
C11H18O6

>  <InChIKey>
MCNKHXZIPATURB-UHFFFAOYSA-N

>  <Repellency>
Inactive

>  <Reference DOI>
10.3390/toxics11100837

>  <Target Organism>
Not applied

$$$$
Compound 849
Actelion Java MolfileCreator 2.0

  0  0  0  0  0  0              0 V3000
M  V30 BEGIN CTAB
M  V30 COUNTS 17 17 0 0 0
M  V30 BEGIN ATOM
M  V30 1 O 0.0 0.0 0.0 0
M  V30 2 C 0.0 1.4995 0.0 0
M  V30 3 O 1.2988 2.2434 0.0 0
M  V30 4 C -1.2988 2.2434 0.0 0
M  V30 5 C 2.5976 1.4877 0.0 0
M  V30 6 C -2.5976 1.4877 0.0 0
M  V30 7 C 3.8964 2.2316 0.0 0
M  V30 8 O -3.9672 2.1017 0.0 0
M  V30 9 O -2.7511 0.0 0.0 0
M  V30 10 C -1.3342 0.673 0.0 0
M  V30 11 C -4.9709 0.9918 0.0 0
M  V30 12 C -4.2152 -0.3069 0.0 0
M  V30 13 C -1.4168 -0.8265 0.0 0
M  V30 14 O -2.7511 -1.5113 0.0 0
M  V30 15 O -0.1534 -1.6412 0.0 0
M  V30 16 C -0.2361 -3.1407 0.0 0
M  V30 17 C 1.0272 -3.9554 0.0 0
M  V30 END ATOM
M  V30 BEGIN BOND
M  V30 1 2 1 2
M  V30 2 1 2 3
M  V30 3 1 2 4
M  V30 4 1 3 5
M  V30 5 1 4 6
M  V30 6 1 5 7
M  V30 7 1 6 8
M  V30 8 1 6 9
M  V30 9 1 6 10
M  V30 10 1 8 11
M  V30 11 1 9 12
M  V30 12 1 10 13
M  V30 13 2 13 14
M  V30 14 1 13 15
M  V30 15 1 15 16
M  V30 16 1 16 17
M  V30 17 1 11 12
M  V30 END BOND
M  V30 END CTAB
M  END
>  <Molecule Name>
1,3-Dioxolane-2,2-diacetic acid, diethyl ester

>  <Activity Label>
0

>  <SMILES>
CCOC(CC1(CC(OCC)=O)OCCO1)=O

>  <Molecular Formula>
C11H18O6

>  <InChIKey>
YNNQXNJEKFCZLF-UHFFFAOYSA-N

>  <Repellency>
Inactive

>  <Reference DOI>
10.3390/toxics11100837

>  <Target Organism>
Not applied

$$$$
Compound 850
Actelion Java MolfileCreator 2.0

  0  0  0  0  0  0              0 V3000
M  V30 BEGIN CTAB
M  V30 COUNTS 17 17 0 0 0
M  V30 BEGIN ATOM
M  V30 1 O 0.0 0.0 0.0 0
M  V30 2 C 0.0 -1.5016 0.0 0 CFG=2
M  V30 3 C -1.3006 -2.2464 0.0 0
M  V30 4 C 1.3006 -2.2464 0.0 0
M  V30 5 C -2.6012 -1.4897 0.0 0
M  V30 6 C -1.3006 -3.7481 0.0 0
M  V30 7 C 2.6012 -1.5016 0.0 0
M  V30 8 C -3.9018 -2.2346 0.0 0
M  V30 9 C -2.6012 -4.4929 0.0 0
M  V30 10 C 3.9018 -2.2464 0.0 0
M  V30 11 C -3.9018 -3.7362 0.0 0
M  V30 12 C 5.2024 -1.5016 0.0 0
M  V30 13 C 6.503 -2.2464 0.0 0
M  V30 14 C 7.8036 -1.5016 0.0 0
M  V30 15 C 9.1042 -2.2464 0.0 0
M  V30 16 C 10.4048 -1.5016 0.0 0
M  V30 17 C 11.7054 -2.2464 0.0 0
M  V30 END ATOM
M  V30 BEGIN BOND
M  V30 1 1 2 1 CFG=1
M  V30 2 1 2 3
M  V30 3 1 2 4
M  V30 4 2 3 5
M  V30 5 1 3 6
M  V30 6 1 4 7
M  V30 7 1 5 8
M  V30 8 2 6 9
M  V30 9 1 7 10
M  V30 10 2 8 11
M  V30 11 1 10 12
M  V30 12 1 12 13
M  V30 13 1 13 14
M  V30 14 1 14 15
M  V30 15 1 15 16
M  V30 16 1 16 17
M  V30 17 1 9 11
M  V30 END BOND
M  V30 BEGIN COLLECTION
M  V30 MDLV30/STERAC1 ATOMS=(1 2)
M  V30 END COLLECTION
M  V30 END CTAB
M  END
>  <Molecule Name>
n-Nonylphenylcarbinol

>  <Activity Label>
0

>  <SMILES>
CCCCCCCCCC(c1ccccc1)O

>  <Molecular Formula>
C16H26O

>  <InChIKey>
MRZGGLIGGZHSBZ-UHFFFAOYSA-N

>  <Repellency>
Inactive

>  <Reference DOI>
10.3390/toxics11100837

>  <Target Organism>
Not applied

$$$$
Compound 851
Actelion Java MolfileCreator 2.0

  0  0  0  0  0  0              0 V3000
M  V30 BEGIN CTAB
M  V30 COUNTS 17 17 0 0 0
M  V30 BEGIN ATOM
M  V30 1 O 0.0 0.0 0.0 0
M  V30 2 C 0.0 -1.5011 0.0 0
M  V30 3 C 1.3001 -2.2575 0.0 0
M  V30 4 C -1.3001 -2.2457 0.0 0
M  V30 5 C 1.3001 -3.7586 0.0 0
M  V30 6 C 2.6003 -1.5129 0.0 0
M  V30 7 C -1.3001 -3.7468 0.0 0
M  V30 8 C 0.0 -4.5033 0.0 0
M  V30 9 C 3.9005 -2.2575 0.0 0
M  V30 10 C 0.0 -6.0044 0.0 0
M  V30 11 C 5.2007 -1.5129 0.0 0
M  V30 12 C -1.3001 -6.749 0.0 0
M  V30 13 C 6.5008 -2.2575 0.0 0
M  V30 14 C -1.3001 -8.2502 0.0 0
M  V30 15 C 7.801 -1.5129 0.0 0
M  V30 16 C -2.6003 -8.9948 0.0 0
M  V30 17 C -2.6003 -10.4959 0.0 0
M  V30 END ATOM
M  V30 BEGIN BOND
M  V30 1 1 1 2
M  V30 2 2 2 3
M  V30 3 1 2 4
M  V30 4 1 3 5
M  V30 5 1 3 6
M  V30 6 2 4 7
M  V30 7 2 5 8
M  V30 8 1 6 9
M  V30 9 1 8 10
M  V30 10 1 9 11
M  V30 11 1 10 12
M  V30 12 1 11 13
M  V30 13 1 12 14
M  V30 14 1 13 15
M  V30 15 1 14 16
M  V30 16 1 16 17
M  V30 17 1 7 8
M  V30 END BOND
M  V30 END CTAB
M  END
>  <Molecule Name>
2,4-Diamyl phenol

>  <Activity Label>
0

>  <SMILES>
CCCCCc(cc1)cc(CCCCC)c1O

>  <Molecular Formula>
C16H26O

>  <InChIKey>
GKPNMUZVXNHWPX-UHFFFAOYSA-N

>  <Repellency>
Inactive

>  <Reference DOI>
10.3390/toxics11100837

>  <Target Organism>
Not applied

$$$$
Compound 852
Actelion Java MolfileCreator 2.0

  0  0  0  0  0  0              0 V3000
M  V30 BEGIN CTAB
M  V30 COUNTS 17 17 0 0 0
M  V30 BEGIN ATOM
M  V30 1 O 0.0 0.0 0.0 0
M  V30 2 C 0.0 -1.5011 0.0 0
M  V30 3 C 1.3001 -2.2575 0.0 0
M  V30 4 C -1.3001 -2.2457 0.0 0
M  V30 5 C 1.3001 -3.7586 0.0 0
M  V30 6 C 2.6003 -1.5129 0.0 0
M  V30 7 C -1.3001 -3.7468 0.0 0
M  V30 8 C 0.0 -4.5033 0.0 0
M  V30 9 C 3.9005 -2.2575 0.0 0
M  V30 10 C 0.0 -6.0044 0.0 0
M  V30 11 C 5.2007 -1.5129 0.0 0
M  V30 12 C -1.3001 -6.749 0.0 0
M  V30 13 C 6.5008 -2.2575 0.0 0
M  V30 14 C -1.3001 -8.2502 0.0 0
M  V30 15 C 7.801 -1.5129 0.0 0
M  V30 16 C -2.6003 -8.9948 0.0 0
M  V30 17 C -2.6003 -10.4959 0.0 0
M  V30 END ATOM
M  V30 BEGIN BOND
M  V30 1 1 1 2
M  V30 2 1 2 3
M  V30 3 1 2 4
M  V30 4 1 3 5
M  V30 5 1 3 6
M  V30 6 1 4 7
M  V30 7 1 5 8
M  V30 8 1 6 9
M  V30 9 1 8 10
M  V30 10 1 9 11
M  V30 11 1 10 12
M  V30 12 1 11 13
M  V30 13 1 12 14
M  V30 14 1 13 15
M  V30 15 1 14 16
M  V30 16 1 16 17
M  V30 17 1 7 8
M  V30 END BOND
M  V30 END CTAB
M  END
>  <Molecule Name>
2, 4-Diamylcyclohexanol

>  <Activity Label>
0

>  <SMILES>
CCCCCC(CC1)CC(CCCCC)C1O

>  <Molecular Formula>
C16H32O

>  <InChIKey>
NWZWESKYBNHXFV-UHFFFAOYSA-N

>  <Repellency>
Inactive

>  <Reference DOI>
10.3390/toxics11100837

>  <Target Organism>
Not applied

$$$$
Compound 853
Actelion Java MolfileCreator 2.0

  0  0  0  0  0  0              0 V3000
M  V30 BEGIN CTAB
M  V30 COUNTS 17 17 0 0 0
M  V30 BEGIN ATOM
M  V30 1 O 0.0 0.0 0.0 0
M  V30 2 C -1.3001 -0.7446 0.0 0
M  V30 3 C 1.3001 -0.7446 0.0 0
M  V30 4 C -2.6002 0.0118 0.0 0
M  V30 5 C -1.3001 -2.2457 0.0 0
M  V30 6 C 2.6002 0.0 0.0 0
M  V30 7 C -3.9004 -0.7328 0.0 0
M  V30 8 C -2.6002 -2.9903 0.0 0
M  V30 9 C 3.9004 -0.7446 0.0 0
M  V30 10 C -3.9004 -2.2338 0.0 0
M  V30 11 C 5.2005 0.0 0.0 0
M  V30 12 C -5.2005 -2.9785 0.0 0
M  V30 13 C 6.5007 -0.7446 0.0 0
M  V30 14 C -6.5007 -2.222 0.0 0
M  V30 15 C -5.957 -4.2786 0.0 0
M  V30 16 C -4.4559 -4.2786 0.0 0
M  V30 17 C -7.8008 -2.9666 0.0 0
M  V30 END ATOM
M  V30 BEGIN BOND
M  V30 1 1 1 2
M  V30 2 1 1 3
M  V30 3 2 2 4
M  V30 4 1 2 5
M  V30 5 1 3 6
M  V30 6 1 4 7
M  V30 7 2 5 8
M  V30 8 1 6 9
M  V30 9 2 7 10
M  V30 10 1 9 11
M  V30 11 1 10 12
M  V30 12 1 11 13
M  V30 13 1 12 14
M  V30 14 1 12 15
M  V30 15 1 12 16
M  V30 16 1 14 17
M  V30 17 1 8 10
M  V30 END BOND
M  V30 END CTAB
M  END
>  <Molecule Name>
p-tert-Amylphenyl n-amyl ether

>  <Activity Label>
0

>  <SMILES>
CCCCCOc1ccc(C(C)(C)CC)cc1

>  <Molecular Formula>
C16H26O

>  <InChIKey>
RDDHRYHRPRFXSY-UHFFFAOYSA-N

>  <Repellency>
Inactive

>  <Reference DOI>
10.3390/toxics11100837

>  <Target Organism>
Not applied

$$$$
Compound 854
Actelion Java MolfileCreator 2.0

  0  0  0  0  0  0              0 V3000
M  V30 BEGIN CTAB
M  V30 COUNTS 17 17 0 0 0
M  V30 BEGIN ATOM
M  V30 1 Cl 0.0 0.0 0.0 0
M  V30 2 C 0.0 -1.5014 0.0 0
M  V30 3 C 1.3004 -2.258 0.0 0
M  V30 4 C -1.3004 -2.2462 0.0 0
M  V30 5 O 2.6009 -1.5132 0.0 0
M  V30 6 C 1.3004 -3.7595 0.0 0
M  V30 7 C -1.3004 -3.7476 0.0 0
M  V30 8 C 3.9013 -2.258 0.0 0
M  V30 9 C 0.0 -4.5043 0.0 0
M  V30 10 C -2.6009 -4.4925 0.0 0
M  V30 11 C 5.2018 -1.5132 0.0 0 CFG=1
M  V30 12 C -1.8561 -5.7929 0.0 0
M  V30 13 C -3.9013 -5.2373 0.0 0
M  V30 14 C -3.3457 -3.192 0.0 0
M  V30 15 C 6.5023 -2.258 0.0 0
M  V30 16 C 5.2018 -0.0118 0.0 0
M  V30 17 Cl 7.8027 -1.5132 0.0 0
M  V30 END ATOM
M  V30 BEGIN BOND
M  V30 1 1 1 2
M  V30 2 2 2 3
M  V30 3 1 2 4
M  V30 4 1 3 5
M  V30 5 1 3 6
M  V30 6 2 4 7
M  V30 7 1 5 8
M  V30 8 2 6 9
M  V30 9 1 7 10
M  V30 10 1 8 11
M  V30 11 1 10 12
M  V30 12 1 10 13
M  V30 13 1 10 14
M  V30 14 1 11 15
M  V30 15 1 11 16 CFG=3
M  V30 16 1 15 17
M  V30 17 1 7 9
M  V30 END BOND
M  V30 BEGIN COLLECTION
M  V30 MDLV30/STERAC1 ATOMS=(1 11)
M  V30 END COLLECTION
M  V30 END CTAB
M  END
>  <Molecule Name>
4-tert-Butyl-2-chlorophenyl 3-chloro-2-methylpropyl ether

>  <Activity Label>
0

>  <SMILES>
CC(COc(ccc(C(C)(C)C)c1)c1Cl)CCl

>  <Molecular Formula>
C14H20OCl2

>  <InChIKey>
RNPSFHXWYYVTOL-UHFFFAOYSA-N

>  <Repellency>
Inactive

>  <Reference DOI>
10.3390/toxics11100837

>  <Target Organism>
Not applied

$$$$
Compound 855
Actelion Java MolfileCreator 2.0

  0  0  0  0  0  0              0 V3000
M  V30 BEGIN CTAB
M  V30 COUNTS 17 17 0 0 0
M  V30 BEGIN ATOM
M  V30 1 O 0.0 0.0 0.0 0
M  V30 2 C 0.0 -1.4997 0.0 0
M  V30 3 O 1.2989 -2.2555 0.0 0
M  V30 4 C -1.2989 -2.2555 0.0 0
M  V30 5 C 2.5979 -1.5115 0.0 0
M  V30 6 C -2.5979 -1.5115 0.0 0
M  V30 7 C -1.2989 -3.7552 0.0 0
M  V30 8 C 3.8969 -2.2673 0.0 0
M  V30 9 O -2.5979 -0.0118 0.0 0
M  V30 10 O -3.8969 -2.2673 0.0 0
M  V30 11 C -2.5979 -4.511 0.0 0
M  V30 12 C -5.1959 -1.5233 0.0 0
M  V30 13 O -2.7515 -5.999 0.0 0
M  V30 14 C -3.9678 -3.8969 0.0 0
M  V30 15 C -6.4949 -2.2791 0.0 0
M  V30 16 C -4.2158 -6.306 0.0 0
M  V30 17 C -4.9716 -5.007 0.0 0
M  V30 END ATOM
M  V30 BEGIN BOND
M  V30 1 2 1 2
M  V30 2 1 2 3
M  V30 3 1 2 4
M  V30 4 1 3 5
M  V30 5 1 4 6
M  V30 6 2 4 7
M  V30 7 1 5 8
M  V30 8 2 6 9
M  V30 9 1 6 10
M  V30 10 1 7 11
M  V30 11 1 10 12
M  V30 12 1 11 13
M  V30 13 2 11 14
M  V30 14 1 12 15
M  V30 15 1 13 16
M  V30 16 1 14 17
M  V30 17 2 16 17
M  V30 END BOND
M  V30 END CTAB
M  END
>  <Molecule Name>
Furfurylidenemalonic acid, diethyl ester

>  <Activity Label>
0

>  <SMILES>
CCOC(C(C(OCC)=O)=Cc1ccc[o]1)=O

>  <Molecular Formula>
C12H14O5

>  <InChIKey>
IRUZVWQOYLRAQX-UHFFFAOYSA-N

>  <Repellency>
Inactive

>  <Reference DOI>
10.3390/toxics11100837

>  <Target Organism>
Not applied

$$$$
Compound 856
Actelion Java MolfileCreator 2.0

  0  0  0  0  0  0              0 V3000
M  V30 BEGIN CTAB
M  V30 COUNTS 17 17 0 0 0
M  V30 BEGIN ATOM
M  V30 1 O 0.0 0.0 0.0 0
M  V30 2 C 1.2998 0.7444 0.0 0
M  V30 3 C -1.2998 0.7444 0.0 0
M  V30 4 C 1.2998 2.2451 0.0 0
M  V30 5 C 2.5996 -0.0118 0.0 0
M  V30 6 C -2.5996 -0.0118 0.0 0
M  V30 7 C 2.5996 2.9896 0.0 0
M  V30 8 C 3.8995 0.7326 0.0 0
M  V30 9 O -3.8995 0.7326 0.0 0
M  V30 10 C 3.8995 2.2333 0.0 0
M  V30 11 C -5.1993 -0.0236 0.0 0
M  V30 12 C 5.1993 2.9778 0.0 0
M  V30 13 C -6.4992 0.7208 0.0 0
M  V30 14 C 4.4549 4.2776 0.0 0
M  V30 15 C 6.4992 3.7222 0.0 0
M  V30 16 C 5.9438 1.6779 0.0 0
M  V30 17 O -7.799 -0.0354 0.0 0
M  V30 END ATOM
M  V30 BEGIN BOND
M  V30 1 1 1 2
M  V30 2 1 1 3
M  V30 3 2 2 4
M  V30 4 1 2 5
M  V30 5 1 3 6
M  V30 6 1 4 7
M  V30 7 2 5 8
M  V30 8 1 6 9
M  V30 9 2 7 10
M  V30 10 1 9 11
M  V30 11 1 10 12
M  V30 12 1 11 13
M  V30 13 1 12 14
M  V30 14 1 12 15
M  V30 15 1 12 16
M  V30 16 1 13 17
M  V30 17 1 8 10
M  V30 END BOND
M  V30 END CTAB
M  END
>  <Molecule Name>
2-(2-(4-tert-Butylphenoxy)ethoxy)ethanol

>  <Activity Label>
0

>  <SMILES>
CC(C)(C)c(cc1)ccc1OCCOCCO

>  <Molecular Formula>
C14H22O3

>  <InChIKey>
USLDVWCSOXIASA-UHFFFAOYSA-N

>  <Repellency>
Inactive

>  <Reference DOI>
10.3390/toxics11100837

>  <Target Organism>
Not applied

$$$$
Compound 857
Actelion Java MolfileCreator 2.0

  0  0  0  0  0  0              0 V3000
M  V30 BEGIN CTAB
M  V30 COUNTS 17 17 0 0 0
M  V30 BEGIN ATOM
M  V30 1 O 0.0 0.0 0.0 0
M  V30 2 C 1.3 0.7445 0.0 0
M  V30 3 C -1.3 0.7445 0.0 0
M  V30 4 C 1.3 2.2454 0.0 0
M  V30 5 C 2.6 -0.0118 0.0 0
M  V30 6 C -2.6 0.0 0.0 0
M  V30 7 C 2.6 2.99 0.0 0
M  V30 8 C 3.9 0.7327 0.0 0
M  V30 9 O -3.9 0.7445 0.0 0
M  V30 10 C 3.9 2.2336 0.0 0
M  V30 11 C -5.2 0.0 0.0 0
M  V30 12 C 5.2 2.9781 0.0 0 CFG=2
M  V30 13 C -6.5 0.7445 0.0 0
M  V30 14 C 5.2 4.479 0.0 0
M  V30 15 C 6.5 2.2218 0.0 0
M  V30 16 O -7.8 0.0 0.0 0
M  V30 17 C 3.9 5.2354 0.0 0
M  V30 END ATOM
M  V30 BEGIN BOND
M  V30 1 1 1 2
M  V30 2 1 1 3
M  V30 3 2 2 4
M  V30 4 1 2 5
M  V30 5 1 3 6
M  V30 6 1 4 7
M  V30 7 2 5 8
M  V30 8 1 6 9
M  V30 9 2 7 10
M  V30 10 1 9 11
M  V30 11 1 10 12
M  V30 12 1 11 13
M  V30 13 1 12 14
M  V30 14 1 12 15 CFG=3
M  V30 15 1 13 16
M  V30 16 1 14 17
M  V30 17 1 8 10
M  V30 END BOND
M  V30 BEGIN COLLECTION
M  V30 MDLV30/STERAC1 ATOMS=(1 12)
M  V30 END COLLECTION
M  V30 END CTAB
M  END
>  <Molecule Name>
2-(2-(4-sec-Butylphenoxy)ethoxy)ethanol

>  <Activity Label>
0

>  <SMILES>
CCC(C)c(cc1)ccc1OCCOCCO

>  <Molecular Formula>
C14H22O3

>  <InChIKey>
AURKCQZXHRKFKB-UHFFFAOYSA-N

>  <Repellency>
Inactive

>  <Reference DOI>
10.3390/toxics11100837

>  <Target Organism>
Not applied

$$$$
Compound 858
Actelion Java MolfileCreator 2.0

  0  0  0  0  0  0              0 V3000
M  V30 BEGIN CTAB
M  V30 COUNTS 17 17 0 0 0
M  V30 BEGIN ATOM
M  V30 1 O 0.0 0.0 0.0 0
M  V30 2 C 0.0 1.4993 0.0 0
M  V30 3 O 1.2986 2.2431 0.0 0
M  V30 4 C -1.2986 2.2431 0.0 0 CFG=2
M  V30 5 C 2.5973 1.4875 0.0 0
M  V30 6 C -1.2986 3.7424 0.0 0
M  V30 7 C -2.5973 1.4875 0.0 0
M  V30 8 C 3.8959 2.2313 0.0 0
M  V30 9 O -2.5973 4.4862 0.0 0
M  V30 10 C 0.0 4.498 0.0 0
M  V30 11 C -3.8959 2.2313 0.0 0
M  V30 12 C 1.2986 3.7424 0.0 0
M  V30 13 C 0.0 5.9974 0.0 0
M  V30 14 C -5.1946 1.4757 0.0 0
M  V30 15 C 2.5973 4.498 0.0 0
M  V30 16 C 1.2986 6.753 0.0 0
M  V30 17 C 2.5973 5.9974 0.0 0
M  V30 END ATOM
M  V30 BEGIN BOND
M  V30 1 2 1 2
M  V30 2 1 2 3
M  V30 3 1 2 4
M  V30 4 1 3 5
M  V30 5 1 4 6
M  V30 6 1 4 7 CFG=1
M  V30 7 1 5 8
M  V30 8 2 6 9
M  V30 9 1 6 10
M  V30 10 1 7 11
M  V30 11 2 10 12
M  V30 12 1 10 13
M  V30 13 1 11 14
M  V30 14 1 12 15
M  V30 15 2 13 16
M  V30 16 2 15 17
M  V30 17 1 16 17
M  V30 END BOND
M  V30 BEGIN COLLECTION
M  V30 MDLV30/STERAC1 ATOMS=(1 4)
M  V30 END COLLECTION
M  V30 END CTAB
M  END
>  <Molecule Name>
alpha-Benzoylvaleric acid, ethyl ester

>  <Activity Label>
0

>  <SMILES>
CCCC(C(c1ccccc1)=O)C(OCC)=O

>  <Molecular Formula>
C14H18O3

>  <InChIKey>
VGSIFKKEDZIPEN-UHFFFAOYSA-N

>  <Repellency>
Inactive

>  <Reference DOI>
10.3390/toxics11100837

>  <Target Organism>
Not applied

$$$$
Compound 859
Actelion Java MolfileCreator 2.0

  0  0  0  0  0  0              0 V3000
M  V30 BEGIN CTAB
M  V30 COUNTS 17 17 0 0 0
M  V30 BEGIN ATOM
M  V30 1 O 0.0 0.0 0.0 0
M  V30 2 C 0.0 -1.5016 0.0 0
M  V30 3 O -1.3006 -2.2464 0.0 0
M  V30 4 C 1.3006 -2.2464 0.0 0
M  V30 5 C -2.6012 -1.5016 0.0 0
M  V30 6 C -3.9018 -2.2464 0.0 0
M  V30 7 O -5.2024 -1.5016 0.0 0
M  V30 8 C -6.503 -2.2464 0.0 0
M  V30 9 C -7.8036 -1.4897 0.0 0
M  V30 10 C -6.503 -3.7481 0.0 0
M  V30 11 C -9.1042 -2.2346 0.0 0
M  V30 12 C -7.8036 -4.4929 0.0 0
M  V30 13 C -9.1042 -3.7362 0.0 0
M  V30 14 C -10.4048 -4.4811 0.0 0
M  V30 15 C -9.6599 -5.7817 0.0 0
M  V30 16 C -11.7054 -5.226 0.0 0
M  V30 17 C -11.1497 -3.1805 0.0 0
M  V30 END ATOM
M  V30 BEGIN BOND
M  V30 1 2 1 2
M  V30 2 1 2 3
M  V30 3 1 2 4
M  V30 4 1 3 5
M  V30 5 1 5 6
M  V30 6 1 6 7
M  V30 7 1 7 8
M  V30 8 2 8 9
M  V30 9 1 8 10
M  V30 10 1 9 11
M  V30 11 2 10 12
M  V30 12 2 11 13
M  V30 13 1 13 14
M  V30 14 1 14 15
M  V30 15 1 14 16
M  V30 16 1 14 17
M  V30 17 1 12 13
M  V30 END BOND
M  V30 END CTAB
M  END
>  <Molecule Name>
Acetic acid, 2-(4-tert-butylphenoxy)ethyl ester

>  <Activity Label>
0

>  <SMILES>
CC(C)(C)c(cc1)ccc1OCCOC(C)=O

>  <Molecular Formula>
C14H20O3

>  <InChIKey>
WYQODQADGFDSGS-UHFFFAOYSA-N

>  <Repellency>
Inactive

>  <Reference DOI>
10.3390/toxics11100837

>  <Target Organism>
Not applied

$$$$
Compound 860
Actelion Java MolfileCreator 2.0

  0  0  0  0  0  0              0 V3000
M  V30 BEGIN CTAB
M  V30 COUNTS 17 17 0 0 0
M  V30 BEGIN ATOM
M  V30 1 O 0.0 0.0 0.0 0
M  V30 2 C 0.0 1.4995 0.0 0
M  V30 3 O -1.2987 2.2433 0.0 0
M  V30 4 C 1.2987 2.2433 0.0 0
M  V30 5 C -2.5975 1.4877 0.0 0
M  V30 6 C 2.5975 1.4877 0.0 0
M  V30 7 C -3.8963 2.2315 0.0 0
M  V30 8 C 2.5975 -0.0118 0.0 0
M  V30 9 C 3.8963 2.2315 0.0 0
M  V30 10 O -5.1951 1.4759 0.0 0
M  V30 11 C 3.8963 -0.7674 0.0 0
M  V30 12 C 5.1951 1.4877 0.0 0
M  V30 13 C -6.4939 2.2197 0.0 0
M  V30 14 C 5.1951 -0.0236 0.0 0
M  V30 15 C -7.7927 1.464 0.0 0
M  V30 16 C -9.0915 2.2079 0.0 0
M  V30 17 C -10.3903 1.4522 0.0 0
M  V30 END ATOM
M  V30 BEGIN BOND
M  V30 1 2 1 2
M  V30 2 1 2 3
M  V30 3 1 2 4
M  V30 4 1 3 5
M  V30 5 1 4 6
M  V30 6 1 5 7
M  V30 7 1 6 8
M  V30 8 1 6 9
M  V30 9 1 7 10
M  V30 10 1 8 11
M  V30 11 1 9 12
M  V30 12 1 10 13
M  V30 13 1 11 14
M  V30 14 1 13 15
M  V30 15 1 15 16
M  V30 16 1 16 17
M  V30 17 1 12 14
M  V30 END BOND
M  V30 END CTAB
M  END
>  <Molecule Name>
Cyclohexylacetic acid, beta-butoxyethyl ester

>  <Activity Label>
0

>  <SMILES>
CCCCOCCOC(CC1CCCCC1)=O

>  <Molecular Formula>
C14H26O3

>  <InChIKey>
OJARONTVHQTMAO-UHFFFAOYSA-N

>  <Repellency>
Inactive

>  <Reference DOI>
10.3390/toxics11100837

>  <Target Organism>
Not applied

$$$$
Compound 861
Actelion Java MolfileCreator 2.0

  0  0  0  0  0  0              0 V3000
M  V30 BEGIN CTAB
M  V30 COUNTS 17 17 0 0 0
M  V30 BEGIN ATOM
M  V30 1 O 0.0 0.0 0.0 0
M  V30 2 C 0.0 1.4997 0.0 0
M  V30 3 O -1.2989 2.2436 0.0 0
M  V30 4 C 1.2989 2.2436 0.0 0
M  V30 5 C -2.5979 1.4878 0.0 0
M  V30 6 C 2.5979 1.4878 0.0 0
M  V30 7 C -3.8968 2.2318 0.0 0
M  V30 8 C 3.8968 2.2318 0.0 0
M  V30 9 C -5.1958 1.476 0.0 0
M  V30 10 O 3.8968 3.7315 0.0 0
M  V30 11 C 5.1958 1.476 0.0 0
M  V30 12 C 6.4947 2.22 0.0 0
M  V30 13 C 5.1958 -0.0236 0.0 0
M  V30 14 C 7.7937 1.4642 0.0 0
M  V30 15 C 6.4947 -0.7793 0.0 0
M  V30 16 C 7.7937 -0.0354 0.0 0
M  V30 17 C 9.0926 -0.7911 0.0 0
M  V30 END ATOM
M  V30 BEGIN BOND
M  V30 1 2 1 2
M  V30 2 1 2 3
M  V30 3 1 2 4
M  V30 4 1 3 5
M  V30 5 1 4 6
M  V30 6 1 5 7
M  V30 7 1 6 8
M  V30 8 2 7 9
M  V30 9 2 8 10
M  V30 10 1 8 11
M  V30 11 2 11 12
M  V30 12 1 11 13
M  V30 13 1 12 14
M  V30 14 2 13 15
M  V30 15 2 14 16
M  V30 16 1 16 17
M  V30 17 1 15 16
M  V30 END BOND
M  V30 END CTAB
M  END
>  <Molecule Name>
beta-(p-Methylbenzoyl)propionic acid, allyl ester

>  <Activity Label>
0

>  <SMILES>
Cc(cc1)ccc1C(CCC(OCC=C)=O)=O

>  <Molecular Formula>
C14H16O3

>  <InChIKey>
NEKWCGBUBFBDTI-UHFFFAOYSA-N

>  <Repellency>
Inactive

>  <Reference DOI>
10.3390/toxics11100837

>  <Target Organism>
Not applied

$$$$
Compound 862
Actelion Java MolfileCreator 2.0

  0  0  0  0  0  0              0 V3000
M  V30 BEGIN CTAB
M  V30 COUNTS 17 17 0 0 0
M  V30 BEGIN ATOM
M  V30 1 O 0.0 0.0 0.0 0
M  V30 2 C 0.0 -1.5011 0.0 0
M  V30 3 O -1.3001 -2.2457 0.0 0
M  V30 4 C 1.3001 -2.2457 0.0 0 CFG=2
M  V30 5 C -2.6003 -1.5011 0.0 0
M  V30 6 O 2.6003 -1.5011 0.0 0
M  V30 7 C 1.3001 -3.7468 0.0 0
M  V30 8 C -2.6003 0.0 0.0 0
M  V30 9 C -3.9005 -2.2457 0.0 0
M  V30 10 C 3.9005 -2.2457 0.0 0
M  V30 11 C 0.0 -4.4915 0.0 0
M  V30 12 C 2.6003 -4.5033 0.0 0
M  V30 13 C 5.2007 -1.5011 0.0 0
M  V30 14 C 3.9005 -3.7468 0.0 0
M  V30 15 C 0.0 -5.9926 0.0 0
M  V30 16 C 2.6003 -6.0044 0.0 0
M  V30 17 C 1.3001 -6.749 0.0 0
M  V30 END ATOM
M  V30 BEGIN BOND
M  V30 1 2 1 2
M  V30 2 1 2 3
M  V30 3 1 2 4
M  V30 4 1 3 5
M  V30 5 1 4 6 CFG=3
M  V30 6 1 4 7
M  V30 7 1 5 8
M  V30 8 1 5 9
M  V30 9 1 6 10
M  V30 10 2 7 11
M  V30 11 1 7 12
M  V30 12 1 10 13
M  V30 13 1 10 14
M  V30 14 1 11 15
M  V30 15 2 12 16
M  V30 16 2 15 17
M  V30 17 1 16 17
M  V30 END BOND
M  V30 BEGIN COLLECTION
M  V30 MDLV30/STERAC1 ATOMS=(1 4)
M  V30 END COLLECTION
M  V30 END CTAB
M  END
>  <Molecule Name>
alpha-iso-Propoxy-alpha-toluic acid, iso-propyl ester

>  <Activity Label>
0

>  <SMILES>
CC(C)OC(C(OC(C)C)=O)c1ccccc1

>  <Molecular Formula>
C14H20O3

>  <InChIKey>
JPZMLXMZWYTMRO-UHFFFAOYSA-N

>  <Repellency>
Inactive

>  <Reference DOI>
10.3390/toxics11100837

>  <Target Organism>
Not applied

$$$$
Compound 863
Actelion Java MolfileCreator 2.0

  0  0  0  0  0  0              0 V3000
M  V30 BEGIN CTAB
M  V30 COUNTS 17 17 0 0 0
M  V30 BEGIN ATOM
M  V30 1 Cl 0.0 0.0 0.0 0
M  V30 2 C 0.0 -1.5014 0.0 0
M  V30 3 C 1.3004 -2.258 0.0 0
M  V30 4 C -1.3004 -2.2462 0.0 0
M  V30 5 O 2.6009 -1.5132 0.0 0
M  V30 6 C 1.3004 -3.7595 0.0 0
M  V30 7 C -1.3004 -3.7476 0.0 0
M  V30 8 C 3.9013 -2.258 0.0 0
M  V30 9 C 0.0 -4.5043 0.0 0
M  V30 10 C -2.6009 -4.4925 0.0 0
M  V30 11 O 3.9013 -3.7595 0.0 0
M  V30 12 O 5.2018 -1.5132 0.0 0
M  V30 13 C -1.8561 -5.7929 0.0 0
M  V30 14 C -3.9013 -5.2373 0.0 0
M  V30 15 C -3.3457 -3.192 0.0 0
M  V30 16 C 6.5023 -2.258 0.0 0
M  V30 17 C 7.8027 -1.5132 0.0 0
M  V30 END ATOM
M  V30 BEGIN BOND
M  V30 1 1 1 2
M  V30 2 2 2 3
M  V30 3 1 2 4
M  V30 4 1 3 5
M  V30 5 1 3 6
M  V30 6 2 4 7
M  V30 7 1 5 8
M  V30 8 2 6 9
M  V30 9 1 7 10
M  V30 10 2 8 11
M  V30 11 1 8 12
M  V30 12 1 10 13
M  V30 13 1 10 14
M  V30 14 1 10 15
M  V30 15 1 12 16
M  V30 16 1 16 17
M  V30 17 1 7 9
M  V30 END BOND
M  V30 END CTAB
M  END
>  <Molecule Name>
Carbonic acid, ethyl 4-tert-butyl-2-chlorophenyl ester

>  <Activity Label>
0

>  <SMILES>
CCOC(Oc(ccc(C(C)(C)C)c1)c1Cl)=O

>  <Molecular Formula>
C13H17O3Cl

>  <InChIKey>
QTWGPWQICMJULK-UHFFFAOYSA-N

>  <Repellency>
Inactive

>  <Reference DOI>
10.3390/toxics11100837

>  <Target Organism>
Not applied

$$$$
Compound 864
Actelion Java MolfileCreator 2.0

  0  0  0  0  0  0              0 V3000
M  V30 BEGIN CTAB
M  V30 COUNTS 17 17 0 0 0
M  V30 BEGIN ATOM
M  V30 1 O 0.0 0.0 0.0 0
M  V30 2 N 0.0 1.4995 0.0 0 CHG=1
M  V30 3 O 1.2988 2.2434 0.0 0 CHG=-1
M  V30 4 C -1.2988 2.2552 0.0 0
M  V30 5 C -1.2988 3.7547 0.0 0
M  V30 6 C -2.5976 1.5113 0.0 0
M  V30 7 C -2.5976 4.5104 0.0 0
M  V30 8 C -3.8964 2.2552 0.0 0
M  V30 9 C -3.8964 3.7665 0.0 0
M  V30 10 C -5.1952 4.5104 0.0 0
M  V30 11 O -5.1952 6.0099 0.0 0
M  V30 12 O -6.494 3.7547 0.0 0
M  V30 13 C -7.7928 4.4986 0.0 0
M  V30 14 C -9.0916 3.7429 0.0 0
M  V30 15 C -10.3905 4.4868 0.0 0
M  V30 16 C -10.3905 5.9863 0.0 0
M  V30 17 C -11.6893 3.7311 0.0 0
M  V30 END ATOM
M  V30 BEGIN BOND
M  V30 1 2 1 2
M  V30 2 1 2 3
M  V30 3 1 2 4
M  V30 4 2 4 5
M  V30 5 1 4 6
M  V30 6 1 5 7
M  V30 7 2 6 8
M  V30 8 2 7 9
M  V30 9 1 9 10
M  V30 10 2 10 11
M  V30 11 1 10 12
M  V30 12 1 12 13
M  V30 13 1 13 14
M  V30 14 1 14 15
M  V30 15 1 15 16
M  V30 16 1 15 17
M  V30 17 1 8 9
M  V30 END BOND
M  V30 END CTAB
M  END
>  <Molecule Name>
p-Nitrobenzoic acid, iso-amyl ester

>  <Activity Label>
0

>  <SMILES>
CC(C)CCOC(c(cc1)ccc1[N+]([O-])=O)=O

>  <Molecular Formula>
C12H15NO4

>  <InChIKey>
KMOODDWVCAWHMC-UHFFFAOYSA-N

>  <Repellency>
Inactive

>  <Reference DOI>
10.3390/toxics11100837

>  <Target Organism>
Not applied

$$$$
Compound 865
Actelion Java MolfileCreator 2.0

  0  0  0  0  0  0              0 V3000
M  V30 BEGIN CTAB
M  V30 COUNTS 17 17 0 0 0
M  V30 BEGIN ATOM
M  V30 1 O 0.0 0.0 0.0 0
M  V30 2 C 1.3009 0.745 0.0 0
M  V30 3 O 2.6018 0.0 0.0 0
M  V30 4 C 1.3009 2.247 0.0 0
M  V30 5 C 3.9027 0.745 0.0 0
M  V30 6 C 2.6018 2.9921 0.0 0
M  V30 7 C 0.0 2.9921 0.0 0
M  V30 8 C 5.2036 0.0 0.0 0
M  V30 9 N 3.9027 3.7371 0.0 0
M  V30 10 C 0.0 4.494 0.0 0
M  V30 11 C -1.3009 2.247 0.0 0
M  V30 12 C 1.3009 5.2391 0.0 0
M  V30 13 C -1.3009 5.2509 0.0 0
M  V30 14 C -1.3009 0.745 0.0 0
M  V30 15 C 1.3009 6.7411 0.0 0
M  V30 16 C -1.3009 6.7529 0.0 0
M  V30 17 C 0.0 7.4861 0.0 0
M  V30 END ATOM
M  V30 BEGIN BOND
M  V30 1 2 1 2
M  V30 2 1 2 3
M  V30 3 1 2 4
M  V30 4 1 3 5
M  V30 5 1 4 6
M  V30 6 2 4 7 CFG=2
M  V30 7 1 5 8
M  V30 8 3 6 9
M  V30 9 1 7 10
M  V30 10 1 7 11
M  V30 11 2 10 12
M  V30 12 1 10 13
M  V30 13 1 11 14
M  V30 14 1 12 15
M  V30 15 2 13 16
M  V30 16 2 15 17
M  V30 17 1 16 17
M  V30 END BOND
M  V30 END CTAB
M  END
>  <Molecule Name>
(1-Phenylpropylidene)cyanoacetic acid, ethyl ester

>  <Activity Label>
0

>  <SMILES>
CCC(c1ccccc1)=C(C(OCC)=O)C#N

>  <Molecular Formula>
C14H15NO2

>  <InChIKey>
LYBDDDYNWSIADW-UHFFFAOYSA-N

>  <Repellency>
Inactive

>  <Reference DOI>
10.3390/toxics11100837

>  <Target Organism>
Not applied

$$$$
Compound 866
Actelion Java MolfileCreator 2.0

  0  0  0  0  0  0              0 V3000
M  V30 BEGIN CTAB
M  V30 COUNTS 17 17 0 0 0
M  V30 BEGIN ATOM
M  V30 1 S 0.0 0.0 0.0 0
M  V30 2 O 1.4993 0.0 0.0 0
M  V30 3 O 0.7437 1.2986 0.0 0
M  V30 4 N 0.0 -1.4993 0.0 0
M  V30 5 C -1.2986 0.7555 0.0 0
M  V30 6 C 1.2986 -2.2549 0.0 0
M  V30 7 C -1.2986 -2.2549 0.0 0
M  V30 8 C -1.2986 2.2549 0.0 0
M  V30 9 C -2.5973 0.0118 0.0 0
M  V30 10 C 2.5973 -1.5111 0.0 0
M  V30 11 C -2.5973 -1.5111 0.0 0
M  V30 12 C -2.5973 3.0105 0.0 0
M  V30 13 C -3.8959 0.7673 0.0 0
M  V30 14 C 3.8959 -2.2667 0.0 0
M  V30 15 C -3.8959 -2.2667 0.0 0
M  V30 16 C -3.8959 2.2667 0.0 0
M  V30 17 C -5.1946 3.0223 0.0 0
M  V30 END ATOM
M  V30 BEGIN BOND
M  V30 1 2 1 2
M  V30 2 2 1 3
M  V30 3 1 1 4
M  V30 4 1 1 5
M  V30 5 1 4 6
M  V30 6 1 4 7
M  V30 7 2 5 8
M  V30 8 1 5 9
M  V30 9 1 6 10
M  V30 10 1 7 11
M  V30 11 1 8 12
M  V30 12 2 9 13
M  V30 13 1 10 14
M  V30 14 1 11 15
M  V30 15 2 12 16
M  V30 16 1 16 17
M  V30 17 1 13 16
M  V30 END BOND
M  V30 END CTAB
M  END
>  <Molecule Name>
N,N-Dipropyl-p-toluenesulfonamide

>  <Activity Label>
0

>  <SMILES>
CCCN(CCC)S(c1ccc(C)cc1)(=O)=O

>  <Molecular Formula>
C13H21NO2S

>  <InChIKey>
AUUADVNHIYKUBA-UHFFFAOYSA-N

>  <Repellency>
Inactive

>  <Reference DOI>
10.3390/toxics11100837

>  <Target Organism>
Not applied

$$$$
Compound 867
Actelion Java MolfileCreator 2.0

  0  0  0  0  0  0              0 V3000
M  V30 BEGIN CTAB
M  V30 COUNTS 17 17 0 0 0
M  V30 BEGIN ATOM
M  V30 1 O 0.0 0.0 0.0 0
M  V30 2 C 0.0 -1.5012 0.0 0
M  V30 3 N 1.3003 -2.246 0.0 0
M  V30 4 C -1.3003 -2.246 0.0 0
M  V30 5 C 2.6006 -1.5012 0.0 0
M  V30 6 C 1.3003 -3.7472 0.0 0
M  V30 7 C -2.6006 -1.5012 0.0 0
M  V30 8 C 3.9009 -2.246 0.0 0
M  V30 9 C 0.0 -4.492 0.0 0
M  V30 10 C -3.9009 -2.246 0.0 0
M  V30 11 C 5.2012 -1.5012 0.0 0
M  V30 12 C 0.0 -5.9932 0.0 0
M  V30 13 C -5.2012 -1.4894 0.0 0
M  V30 14 C -3.9009 -3.7472 0.0 0
M  V30 15 C -6.5015 -2.2341 0.0 0
M  V30 16 C -5.2012 -4.492 0.0 0
M  V30 17 C -6.5015 -3.7354 0.0 0
M  V30 END ATOM
M  V30 BEGIN BOND
M  V30 1 2 1 2
M  V30 2 1 2 3
M  V30 3 1 2 4
M  V30 4 1 3 5
M  V30 5 1 3 6
M  V30 6 2 4 7 CFG=2
M  V30 7 1 5 8
M  V30 8 1 6 9
M  V30 9 1 7 10
M  V30 10 1 8 11
M  V30 11 1 9 12
M  V30 12 2 10 13
M  V30 13 1 10 14
M  V30 14 1 13 15
M  V30 15 2 14 16
M  V30 16 2 15 17
M  V30 17 1 16 17
M  V30 END BOND
M  V30 END CTAB
M  END
>  <Molecule Name>
N,N-Dipropylcinnamamide

>  <Activity Label>
0

>  <SMILES>
CCCN(CCC)C(C=Cc1ccccc1)=O

>  <Molecular Formula>
C15H21NO

>  <InChIKey>
QADAEBLCLNTGGH-UHFFFAOYSA-N

>  <Repellency>
Inactive

>  <Reference DOI>
10.3390/toxics11100837

>  <Target Organism>
Not applied

$$$$
Compound 868
Actelion Java MolfileCreator 2.0

  0  0  0  0  0  0              0 V3000
M  V30 BEGIN CTAB
M  V30 COUNTS 17 17 0 0 0
M  V30 BEGIN ATOM
M  V30 1 O 0.0 0.0 0.0 0
M  V30 2 C 0.0 -1.5012 0.0 0
M  V30 3 N 1.3003 -2.246 0.0 0
M  V30 4 C -1.3003 -2.246 0.0 0
M  V30 5 C 2.6006 -1.5012 0.0 0
M  V30 6 C 1.3003 -3.7472 0.0 0
M  V30 7 C -2.6006 -1.5012 0.0 0
M  V30 8 C 3.9009 -2.246 0.0 0
M  V30 9 C 2.6006 0.0 0.0 0
M  V30 10 C 0.0 -4.492 0.0 0
M  V30 11 C 2.6006 -4.492 0.0 0
M  V30 12 C -3.9009 -2.246 0.0 0
M  V30 13 C -5.2012 -1.4894 0.0 0
M  V30 14 C -3.9009 -3.7472 0.0 0
M  V30 15 C -6.5015 -2.2341 0.0 0
M  V30 16 C -5.2012 -4.492 0.0 0
M  V30 17 C -6.5015 -3.7354 0.0 0
M  V30 END ATOM
M  V30 BEGIN BOND
M  V30 1 2 1 2
M  V30 2 1 2 3
M  V30 3 1 2 4
M  V30 4 1 3 5
M  V30 5 1 3 6
M  V30 6 2 4 7 CFG=2
M  V30 7 1 5 8
M  V30 8 1 5 9
M  V30 9 1 6 10
M  V30 10 1 6 11
M  V30 11 1 7 12
M  V30 12 2 12 13
M  V30 13 1 12 14
M  V30 14 1 13 15
M  V30 15 2 14 16
M  V30 16 2 15 17
M  V30 17 1 16 17
M  V30 END BOND
M  V30 END CTAB
M  END
>  <Molecule Name>
N,N-Di-iso-propylcinnamamide

>  <Activity Label>
0

>  <SMILES>
CC(C)N(C(C)C)C(C=Cc1ccccc1)=O

>  <Molecular Formula>
C15H21NO

>  <InChIKey>
AJHASESAHHHPGR-UHFFFAOYSA-N

>  <Repellency>
Inactive

>  <Reference DOI>
10.3390/toxics11100837

>  <Target Organism>
Not applied

$$$$
Compound 869
Actelion Java MolfileCreator 2.0

  0  0  0  0  0  0              0 V3000
M  V30 BEGIN CTAB
M  V30 COUNTS 17 19 0 0 0
M  V30 BEGIN ATOM
M  V30 1 O 0.0 0.0 0.0 0
M  V30 2 C 1.2217 -0.7065 0.0 0
M  V30 3 C -1.2217 -0.7065 0.0 0
M  V30 4 C 1.2217 -2.1196 0.0 0
M  V30 5 C 2.4434 0.0 0.0 0
M  V30 6 C -2.5023 -0.1324 0.0 0
M  V30 7 C -1.3689 -2.1049 0.0 0
M  V30 8 C 2.4434 -2.8261 0.0 0
M  V30 9 C 3.6652 -0.7065 0.0 0
M  V30 10 C -3.4444 -1.1775 0.0 0
M  V30 11 C -4.2981 -0.1471 0.0 0
M  V30 12 C -2.2962 1.2658 0.0 0
M  V30 13 C -2.7525 -2.3993 0.0 0
M  V30 14 C 3.6652 -2.1196 0.0 0
M  V30 15 C -4.8575 -0.3238 0.0 0
M  V30 16 C -5.0047 -1.7222 0.0 0
M  V30 17 C -4.4895 -2.0166 0.0 0
M  V30 END ATOM
M  V30 BEGIN BOND
M  V30 1 1 1 2
M  V30 2 1 1 3
M  V30 3 2 2 4
M  V30 4 1 2 5
M  V30 5 1 3 6
M  V30 6 1 3 7
M  V30 7 1 4 8
M  V30 8 2 5 9
M  V30 9 1 6 10
M  V30 10 1 6 11
M  V30 11 1 6 12
M  V30 12 1 7 13
M  V30 13 2 8 14
M  V30 14 1 10 15
M  V30 15 1 10 16
M  V30 16 1 11 17
M  V30 17 1 9 14
M  V30 18 1 10 13
M  V30 19 1 13 17
M  V30 END BOND
M  V30 END CTAB
M  END
>  <Molecule Name>
Bornyl phenyl ether

>  <Activity Label>
0

>  <SMILES>
CC(C)(C(CC1)C2)C1(C)C2Oc1ccccc1

>  <Molecular Formula>
C16H22O

>  <InChIKey>
OYPGSSINLUSXOL-UHFFFAOYSA-N

>  <Repellency>
Inactive

>  <Reference DOI>
10.3390/toxics11100837

>  <Target Organism>
Not applied

$$$$
Compound 870
Actelion Java MolfileCreator 2.0

  0  0  0  0  0  0              0 V3000
M  V30 BEGIN CTAB
M  V30 COUNTS 18 16 0 0 0
M  V30 BEGIN ATOM
M  V30 1 O 0.0 0.0 0.0 0
M  V30 2 C -0.2601 1.478 0.0 0
M  V30 3 O 0.8868 2.4476 0.0 0
M  V30 4 C -1.6672 1.9865 0.0 0
M  V30 5 C -2.8142 1.0169 0.0 0
M  V30 6 O 5.5812 4.5406 0.0 0
M  V30 7 C 4.0794 4.5406 0.0 0
M  V30 8 O 3.3227 5.8413 0.0 0
M  V30 9 C 3.3345 3.2399 0.0 0
M  V30 10 C 4.0794 1.9392 0.0 0
M  V30 11 O -4.1622 3.973 0.0 0
M  V30 12 C -3.6538 5.3802 0.0 0
M  V30 13 C -2.1757 5.6403 0.0 0
M  V30 14 C -1.2061 4.4933 0.0 0
M  V30 15 C -1.6672 7.0474 0.0 0
M  V30 16 C 0.2719 4.7535 0.0 0
M  V30 17 C -0.1891 7.3076 0.0 0
M  V30 18 C 0.7804 6.1606 0.0 0
M  V30 END ATOM
M  V30 BEGIN BOND
M  V30 1 2 1 2
M  V30 2 1 2 3
M  V30 3 1 2 4
M  V30 4 1 4 5
M  V30 5 2 6 7
M  V30 6 1 7 8
M  V30 7 1 7 9
M  V30 8 1 9 10
M  V30 9 2 11 12
M  V30 10 1 12 13
M  V30 11 2 13 14
M  V30 12 1 13 15
M  V30 13 1 14 16
M  V30 14 2 15 17
M  V30 15 2 16 18
M  V30 16 1 17 18
M  V30 END BOND
M  V30 END CTAB
M  END
>  <Molecule Name>
Benzaldehyde dipropionate

>  <Activity Label>
0

>  <SMILES>
CCC(O)=O.CCC(O)=O.O=Cc1ccccc1

>  <Molecular Formula>
C3H6O2.C3H6O2.C7H6O

>  <InChIKey>
WTCKOSUKUKIROV-UHFFFAOYSA-N

>  <Repellency>
Inactive

>  <Reference DOI>
10.3390/toxics11100837

>  <Target Organism>
Not applied

$$$$
Compound 871
Actelion Java MolfileCreator 2.0

  0  0  0  0  0  0              0 V3000
M  V30 BEGIN CTAB
M  V30 COUNTS 18 18 0 0 0
M  V30 BEGIN ATOM
M  V30 1 C 0.0 0.0 0.0 0
M  V30 2 C 1.4075 0.5118 0.0 0
M  V30 3 C -1.1516 0.9655 0.0 0
M  V30 4 C -0.2559 -1.4773 0.0 0
M  V30 5 C 1.6635 1.9892 0.0 0
M  V30 6 C -0.8957 2.4429 0.0 0
M  V30 7 C -1.6635 -1.9892 0.0 0
M  V30 8 C 0.8957 -2.4429 0.0 0
M  V30 9 C 0.5118 2.9547 0.0 0
M  V30 10 C 5.4907 0.6514 0.0 0
M  V30 11 C 4.0831 0.1395 0.0 0
M  V30 12 C 6.6424 -0.314 0.0 0
M  V30 13 C 5.7466 2.1288 0.0 0
M  V30 14 C 3.8272 -1.3377 0.0 0
M  V30 15 C 6.3864 -1.7914 0.0 0
M  V30 16 C 7.1542 2.6406 0.0 0
M  V30 17 C 4.595 3.0943 0.0 0
M  V30 18 C 4.9788 -2.3033 0.0 0
M  V30 END ATOM
M  V30 BEGIN BOND
M  V30 1 2 1 2
M  V30 2 1 1 3
M  V30 3 1 1 4
M  V30 4 1 2 5
M  V30 5 2 3 6
M  V30 6 1 4 7
M  V30 7 1 4 8
M  V30 8 2 5 9
M  V30 9 2 10 11
M  V30 10 1 10 12
M  V30 11 1 10 13
M  V30 12 1 11 14
M  V30 13 2 12 15
M  V30 14 1 13 16
M  V30 15 1 13 17
M  V30 16 2 14 18
M  V30 17 1 6 9
M  V30 18 1 15 18
M  V30 END BOND
M  V30 END CTAB
M  END
>  <Molecule Name>
Cumene (iso-Propylbenzene)

>  <Activity Label>
0

>  <SMILES>
CC(C)c1ccccc1.CC(C)c1ccccc1

>  <Molecular Formula>
C9H12.C9H12

>  <InChIKey>
RCXZLYUPSMHHCE-UHFFFAOYSA-N

>  <Repellency>
Inactive

>  <Reference DOI>
10.3390/toxics11100837

>  <Target Organism>
Not applied

$$$$
Compound 872
Actelion Java MolfileCreator 2.0

  0  0  0  0  0  0              0 V3000
M  V30 BEGIN CTAB
M  V30 COUNTS 18 18 0 0 0
M  V30 BEGIN ATOM
M  V30 1 O 0.0 0.0 0.0 0
M  V30 2 C 0.0 -1.4988 0.0 0
M  V30 3 O 1.2982 -2.2542 0.0 0
M  V30 4 C -1.2982 -2.2542 0.0 0
M  V30 5 C 2.5965 -1.5106 0.0 0
M  V30 6 C -1.2982 -3.7531 0.0 0
M  V30 7 C -2.5965 -1.5106 0.0 0
M  V30 8 C 3.8947 -2.266 0.0 0
M  V30 9 O 0.0 -4.4966 0.0 0
M  V30 10 C -2.5965 -4.5084 0.0 0
M  V30 11 O -3.8947 -2.266 0.0 0
M  V30 12 C -3.8947 -3.7531 0.0 0
M  V30 13 C -2.5965 -6.0073 0.0 0
M  V30 14 C -5.193 -1.5224 0.0 0
M  V30 15 C -5.193 -4.5084 0.0 0
M  V30 16 C -3.8947 -6.7627 0.0 0
M  V30 17 C -6.4912 -2.2778 0.0 0
M  V30 18 C -5.193 -6.0073 0.0 0
M  V30 END ATOM
M  V30 BEGIN BOND
M  V30 1 2 1 2
M  V30 2 1 2 3
M  V30 3 1 2 4
M  V30 4 1 3 5
M  V30 5 1 4 6
M  V30 6 2 4 7 CFG=2
M  V30 7 1 5 8
M  V30 8 2 6 9
M  V30 9 1 6 10
M  V30 10 1 7 11
M  V30 11 2 10 12
M  V30 12 1 10 13
M  V30 13 1 11 14
M  V30 14 1 12 15
M  V30 15 2 13 16
M  V30 16 1 14 17
M  V30 17 2 15 18
M  V30 18 1 16 18
M  V30 END BOND
M  V30 END CTAB
M  END
>  <Molecule Name>
alpha-Benzoyl-beta-ethoxyacrylic acid, ethyl ester

>  <Activity Label>
0

>  <SMILES>
CCOC=C(C(c1ccccc1)=O)C(OCC)=O

>  <Molecular Formula>
C14H16O4

>  <InChIKey>
YAHUDNWHZFLCBN-UHFFFAOYSA-N

>  <Repellency>
Inactive

>  <Reference DOI>
10.3390/toxics11100837

>  <Target Organism>
Not applied

$$$$
Compound 873
Actelion Java MolfileCreator 2.0

  0  0  0  0  0  0              0 V3000
M  V30 BEGIN CTAB
M  V30 COUNTS 18 18 0 0 0
M  V30 BEGIN ATOM
M  V30 1 O 0.0 0.0 0.0 0
M  V30 2 C 0.0 -1.4987 0.0 0
M  V30 3 O 1.2981 -2.254 0.0 0
M  V30 4 C -1.2981 -2.254 0.0 0
M  V30 5 C 2.5962 -1.5105 0.0 0
M  V30 6 C -2.5962 -1.5105 0.0 0
M  V30 7 C -1.2981 -3.7527 0.0 0
M  V30 8 C 3.8943 -2.2658 0.0 0
M  V30 9 O -2.5962 -0.0118 0.0 0
M  V30 10 O -3.8943 -2.2658 0.0 0
M  V30 11 C -2.5962 -4.508 0.0 0
M  V30 12 C -5.1924 -1.5223 0.0 0
M  V30 13 C -3.8943 -3.7527 0.0 0
M  V30 14 C -2.5962 -6.0067 0.0 0
M  V30 15 C -6.4905 -2.2776 0.0 0
M  V30 16 C -5.1924 -4.508 0.0 0
M  V30 17 C -3.8943 -6.762 0.0 0
M  V30 18 C -5.1924 -6.0067 0.0 0
M  V30 END ATOM
M  V30 BEGIN BOND
M  V30 1 2 1 2
M  V30 2 1 2 3
M  V30 3 1 2 4
M  V30 4 1 3 5
M  V30 5 1 4 6
M  V30 6 1 4 7
M  V30 7 1 5 8
M  V30 8 2 6 9
M  V30 9 1 6 10
M  V30 10 1 7 11
M  V30 11 1 10 12
M  V30 12 2 11 13
M  V30 13 1 11 14
M  V30 14 1 12 15
M  V30 15 1 13 16
M  V30 16 2 14 17
M  V30 17 2 16 18
M  V30 18 1 17 18
M  V30 END BOND
M  V30 END CTAB
M  END
>  <Molecule Name>
Benzylmalonic acid, diethyl ester

>  <Activity Label>
0

>  <SMILES>
CCOC(C(Cc1ccccc1)C(OCC)=O)=O

>  <Molecular Formula>
C14H18O4

>  <InChIKey>
ICZLTZWATFXDLP-UHFFFAOYSA-N

>  <Repellency>
Inactive

>  <Reference DOI>
10.3390/toxics11100837

>  <Target Organism>
Not applied

$$$$
Compound 874
Actelion Java MolfileCreator 2.0

  0  0  0  0  0  0              0 V3000
M  V30 BEGIN CTAB
M  V30 COUNTS 18 18 0 0 0
M  V30 BEGIN ATOM
M  V30 1 O 0.0 0.0 0.0 0
M  V30 2 C -1.3005 0.7448 0.0 0
M  V30 3 O -2.601 0.0 0.0 0
M  V30 4 C -1.3005 2.2463 0.0 0
M  V30 5 C -2.601 -1.5015 0.0 0
M  V30 6 C -2.601 2.9912 0.0 0
M  V30 7 C 0.0 2.9912 0.0 0
M  V30 8 C -3.9016 -2.2582 0.0 0
M  V30 9 C -3.9016 2.2463 0.0 0
M  V30 10 C -2.601 4.4927 0.0 0
M  V30 11 C 0.0 4.4927 0.0 0
M  V30 12 C -3.9016 -3.7597 0.0 0
M  V30 13 O -3.9016 0.7448 0.0 0
M  V30 14 O -5.2021 2.9912 0.0 0
M  V30 15 C -1.3005 5.2376 0.0 0
M  V30 16 C -6.5027 2.2463 0.0 0
M  V30 17 C -7.8032 2.9912 0.0 0
M  V30 18 C -9.1037 2.2463 0.0 0
M  V30 END ATOM
M  V30 BEGIN BOND
M  V30 1 2 1 2
M  V30 2 1 2 3
M  V30 3 1 2 4
M  V30 4 1 3 5
M  V30 5 2 4 6
M  V30 6 1 4 7
M  V30 7 1 5 8
M  V30 8 1 6 9
M  V30 9 1 6 10
M  V30 10 2 7 11
M  V30 11 1 8 12
M  V30 12 2 9 13
M  V30 13 1 9 14
M  V30 14 2 10 15
M  V30 15 1 14 16
M  V30 16 1 16 17
M  V30 17 1 17 18
M  V30 18 1 11 15
M  V30 END BOND
M  V30 END CTAB
M  END
>  <Molecule Name>
Phthalic acid, di-n-propyl ester

>  <Activity Label>
0

>  <SMILES>
CCCOC(c(cccc1)c1C(OCCC)=O)=O

>  <Molecular Formula>
C14H18O4

>  <InChIKey>
MQHNKCZKNAJROC-UHFFFAOYSA-N

>  <Repellency>
Inactive

>  <Reference DOI>
10.3390/toxics11100837

>  <Target Organism>
Not applied

$$$$
Compound 875
Actelion Java MolfileCreator 2.0

  0  0  0  0  0  0              0 V3000
M  V30 BEGIN CTAB
M  V30 COUNTS 18 18 0 0 0
M  V30 BEGIN ATOM
M  V30 1 O 0.0 0.0 0.0 0
M  V30 2 C 0.0 -1.4995 0.0 0
M  V30 3 O -1.2988 -2.2552 0.0 0
M  V30 4 C 1.2988 -2.2552 0.0 0
M  V30 5 C -2.5976 -1.5113 0.0 0
M  V30 6 C 1.2988 -3.7547 0.0 0
M  V30 7 C 2.5976 -1.5113 0.0 0
M  V30 8 C -3.8964 -2.267 0.0 0
M  V30 9 C 0.0 -4.4986 0.0 0
M  V30 10 C 2.5976 -4.5104 0.0 0
M  V30 11 C 3.8964 -2.2552 0.0 0
M  V30 12 C -5.1952 -1.5231 0.0 0
M  V30 13 O -1.2988 -3.7429 0.0 0
M  V30 14 O 0.0 -5.9981 0.0 0
M  V30 15 C 3.8964 -3.7547 0.0 0
M  V30 16 C -6.4941 -2.2788 0.0 0
M  V30 17 C -7.7929 -1.5349 0.0 0
M  V30 18 C -9.0917 -2.2906 0.0 0
M  V30 END ATOM
M  V30 BEGIN BOND
M  V30 1 2 1 2
M  V30 2 1 2 3
M  V30 3 1 2 4
M  V30 4 1 3 5
M  V30 5 2 4 6
M  V30 6 1 4 7
M  V30 7 1 5 8
M  V30 8 1 6 9
M  V30 9 1 6 10
M  V30 10 2 7 11
M  V30 11 1 8 12
M  V30 12 2 9 13
M  V30 13 1 9 14
M  V30 14 2 10 15
M  V30 15 1 12 16
M  V30 16 1 16 17
M  V30 17 1 17 18
M  V30 18 1 11 15
M  V30 END BOND
M  V30 END CTAB
M  END
>  <Molecule Name>
Phthalic acid, n-hexyl hydrogen ester

>  <Activity Label>
0

>  <SMILES>
CCCCCCOC(c(cccc1)c1C(O)=O)=O

>  <Molecular Formula>
C14H18O4

>  <InChIKey>
XOSNGXNHDRYFEF-UHFFFAOYSA-N

>  <Repellency>
Inactive

>  <Reference DOI>
10.3390/toxics11100837

>  <Target Organism>
Not applied

$$$$
Compound 876
Actelion Java MolfileCreator 2.0

  0  0  0  0  0  0              0 V3000
M  V30 BEGIN CTAB
M  V30 COUNTS 18 18 0 0 0
M  V30 BEGIN ATOM
M  V30 1 O 0.0 0.0 0.0 0
M  V30 2 C 1.2994 -0.756 0.0 0
M  V30 3 O 1.2994 -2.2562 0.0 0
M  V30 4 C 2.5988 -0.0118 0.0 0
M  V30 5 C 0.0 -3.0004 0.0 0
M  V30 6 C 2.5988 1.4884 0.0 0
M  V30 7 C 3.8982 -0.7678 0.0 0
M  V30 8 C -1.2994 -2.2562 0.0 0
M  V30 9 C 0.0 -4.5006 0.0 0
M  V30 10 C 1.2994 2.2326 0.0 0
M  V30 11 C 3.8982 2.2326 0.0 0
M  V30 12 C 5.1976 -0.0236 0.0 0
M  V30 13 O 1.2994 3.7328 0.0 0
M  V30 14 O 0.0 1.4765 0.0 0
M  V30 15 C 5.1976 1.4765 0.0 0
M  V30 16 C -1.2994 2.2208 0.0 0
M  V30 17 C -1.2994 3.721 0.0 0
M  V30 18 C -2.5988 1.4647 0.0 0
M  V30 END ATOM
M  V30 BEGIN BOND
M  V30 1 2 1 2
M  V30 2 1 2 3
M  V30 3 1 2 4
M  V30 4 1 3 5
M  V30 5 2 4 6
M  V30 6 1 4 7
M  V30 7 1 5 8
M  V30 8 1 5 9
M  V30 9 1 6 10
M  V30 10 1 6 11
M  V30 11 2 7 12
M  V30 12 2 10 13
M  V30 13 1 10 14
M  V30 14 2 11 15
M  V30 15 1 14 16
M  V30 16 1 16 17
M  V30 17 1 16 18
M  V30 18 1 12 15
M  V30 END BOND
M  V30 END CTAB
M  END
>  <Molecule Name>
Phthalic acid, di-iso-propyl ester

>  <Activity Label>
0

>  <SMILES>
CC(C)OC(c(cccc1)c1C(OC(C)C)=O)=O

>  <Molecular Formula>
C14H18O4

>  <InChIKey>
QWDBCIAVABMJPP-UHFFFAOYSA-N

>  <Repellency>
Inactive

>  <Reference DOI>
10.3390/toxics11100837

>  <Target Organism>
Not applied

$$$$
Compound 877
Actelion Java MolfileCreator 2.0

  0  0  0  0  0  0              0 V3000
M  V30 BEGIN CTAB
M  V30 COUNTS 18 18 0 0 0
M  V30 BEGIN ATOM
M  V30 1 O 0.0 0.0 0.0 0
M  V30 2 C 0.0 1.501 0.0 0
M  V30 3 O -1.3001 2.2456 0.0 0
M  V30 4 C 1.3001 2.2456 0.0 0 CFG=1
M  V30 5 C -2.6002 1.501 0.0 0
M  V30 6 O 2.6002 1.501 0.0 0
M  V30 7 C 1.3001 3.7467 0.0 0
M  V30 8 C -3.9003 2.2574 0.0 0
M  V30 9 C -2.6002 0.0 0.0 0
M  V30 10 C 3.9003 2.2456 0.0 0
M  V30 11 C -5.2004 1.5128 0.0 0
M  V30 12 C -3.9003 3.7585 0.0 0
M  V30 13 C -3.9003 -0.7446 0.0 0
M  V30 14 O 3.9003 3.7467 0.0 0
M  V30 15 C 5.2004 1.501 0.0 0
M  V30 16 C -5.2004 0.0118 0.0 0
M  V30 17 C -2.6002 4.5031 0.0 0
M  V30 18 C -2.6002 6.0042 0.0 0
M  V30 END ATOM
M  V30 BEGIN BOND
M  V30 1 2 1 2
M  V30 2 1 2 3
M  V30 3 1 2 4
M  V30 4 1 3 5
M  V30 5 1 4 6
M  V30 6 1 4 7 CFG=3
M  V30 7 2 5 8
M  V30 8 1 5 9
M  V30 9 1 6 10
M  V30 10 1 8 11
M  V30 11 1 8 12
M  V30 12 2 9 13
M  V30 13 2 10 14
M  V30 14 1 10 15
M  V30 15 2 11 16
M  V30 16 1 12 17
M  V30 17 2 17 18
M  V30 18 1 13 16
M  V30 END BOND
M  V30 BEGIN COLLECTION
M  V30 MDLV30/STERAC1 ATOMS=(1 4)
M  V30 END COLLECTION
M  V30 END CTAB
M  END
>  <Molecule Name>
alpha-Acetoxypropionic acid, o-allylphenyl ester

>  <Activity Label>
0

>  <SMILES>
CC(C(Oc1c(CC=C)cccc1)=O)OC(C)=O

>  <Molecular Formula>
C14H16O4

>  <InChIKey>
DHQRRRGMNNGYAB-UHFFFAOYSA-N

>  <Repellency>
Inactive

>  <Reference DOI>
10.3390/toxics11100837

>  <Target Organism>
Not applied

$$$$
Compound 878
Actelion Java MolfileCreator 2.0

  0  0  0  0  0  0              0 V3000
M  V30 BEGIN CTAB
M  V30 COUNTS 18 18 0 0 0
M  V30 BEGIN ATOM
M  V30 1 O 0.0 0.0 0.0 0
M  V30 2 C -1.2988 -0.7438 0.0 0
M  V30 3 O -1.2988 -2.2434 0.0 0
M  V30 4 C -2.5976 0.0118 0.0 0
M  V30 5 C 0.0 -2.9991 0.0 0
M  V30 6 O -1.2988 0.7556 0.0 0
M  V30 7 C -3.8965 0.7674 0.0 0
M  V30 8 C -2.5976 -1.4877 0.0 0
M  V30 9 C 0.0 -4.4986 0.0 0
M  V30 10 C -1.2988 2.2552 0.0 0
M  V30 11 C -5.1953 0.0236 0.0 0
M  V30 12 C -3.8965 -2.2316 0.0 0
M  V30 13 C 1.2988 -5.2543 0.0 0
M  V30 14 O -2.5976 3.0109 0.0 0
M  V30 15 C 0.0 2.9991 0.0 0
M  V30 16 C -5.1953 -1.4759 0.0 0
M  V30 17 C 0.0 4.4986 0.0 0
M  V30 18 C 1.2988 5.2543 0.0 0
M  V30 END ATOM
M  V30 BEGIN BOND
M  V30 1 2 1 2
M  V30 2 1 2 3
M  V30 3 1 2 4
M  V30 4 1 3 5
M  V30 5 1 4 6
M  V30 6 1 4 7
M  V30 7 1 4 8
M  V30 8 1 5 9
M  V30 9 1 6 10
M  V30 10 1 7 11
M  V30 11 1 8 12
M  V30 12 1 9 13
M  V30 13 2 10 14
M  V30 14 1 10 15
M  V30 15 1 11 16
M  V30 16 1 15 17
M  V30 17 1 17 18
M  V30 18 1 12 16
M  V30 END BOND
M  V30 END CTAB
M  END
>  <Molecule Name>
1-Butyroxycyclohexane-carboxylic acid, propyl ester

>  <Activity Label>
0

>  <SMILES>
CCCC(OC1(CCCCC1)C(OCCC)=O)=O

>  <Molecular Formula>
C14H24O4

>  <InChIKey>
FDOMEWPPBKQKPZ-UHFFFAOYSA-N

>  <Repellency>
Inactive

>  <Reference DOI>
10.3390/toxics11100837

>  <Target Organism>
Not applied

$$$$
Compound 879
Actelion Java MolfileCreator 2.0

  0  0  0  0  0  0              0 V3000
M  V30 BEGIN CTAB
M  V30 COUNTS 18 18 0 0 0
M  V30 BEGIN ATOM
M  V30 1 O 0.0 0.0 0.0 0
M  V30 2 C 0.0 1.5013 0.0 0
M  V30 3 O -1.3003 2.2461 0.0 0
M  V30 4 C 1.3003 2.2461 0.0 0
M  V30 5 C -2.6007 1.5013 0.0 0
M  V30 6 C 2.6007 1.5013 0.0 0
M  V30 7 C -3.9011 2.2461 0.0 0
M  V30 8 C 3.9011 2.2461 0.0 0
M  V30 9 C -5.2015 1.5013 0.0 0
M  V30 10 C 3.9011 3.7474 0.0 0
M  V30 11 C 5.2015 1.5013 0.0 0
M  V30 12 O 2.6007 4.504 0.0 0
M  V30 13 C 5.2015 4.4922 0.0 0
M  V30 14 C 6.5019 2.2461 0.0 0
M  V30 15 C 2.6007 6.0054 0.0 0
M  V30 16 O 5.2015 5.9936 0.0 0
M  V30 17 C 6.5019 3.7474 0.0 0
M  V30 18 C 3.9011 6.7502 0.0 0
M  V30 END ATOM
M  V30 BEGIN BOND
M  V30 1 2 1 2
M  V30 2 1 2 3
M  V30 3 1 2 4
M  V30 4 1 3 5
M  V30 5 2 4 6 CFG=2
M  V30 6 1 5 7
M  V30 7 1 6 8
M  V30 8 1 7 9
M  V30 9 2 8 10
M  V30 10 1 8 11
M  V30 11 1 10 12
M  V30 12 1 10 13
M  V30 13 2 11 14
M  V30 14 1 12 15
M  V30 15 1 13 16
M  V30 16 2 13 17
M  V30 17 1 16 18
M  V30 18 1 14 17
M  V30 END BOND
M  V30 END CTAB
M  END
>  <Molecule Name>
2,3-Dimethoxycinnamic acid, n-propyl ester

>  <Activity Label>
0

>  <SMILES>
CCCOC(C=Cc(cccc1OC)c1OC)=O

>  <Molecular Formula>
C14H18O4

>  <InChIKey>
RBLUXUBZPKGJMX-UHFFFAOYSA-N

>  <Repellency>
Inactive

>  <Reference DOI>
10.3390/toxics11100837

>  <Target Organism>
Not applied

$$$$
Compound 880
Actelion Java MolfileCreator 2.0

  0  0  0  0  0  0              0 V3000
M  V30 BEGIN CTAB
M  V30 COUNTS 18 18 0 0 0
M  V30 BEGIN ATOM
M  V30 1 O 0.0 0.0 0.0 0
M  V30 2 C 0.0 1.5016 0.0 0
M  V30 3 O -1.3006 2.2465 0.0 0
M  V30 4 C 1.3006 2.2465 0.0 0
M  V30 5 C -2.6013 1.5016 0.0 0
M  V30 6 C 2.6013 1.5016 0.0 0
M  V30 7 C -3.9019 2.2584 0.0 0
M  V30 8 C -2.6013 0.0 0.0 0
M  V30 9 C 3.9019 2.2465 0.0 0
M  V30 10 C -5.2026 1.5134 0.0 0
M  V30 11 C -3.9019 -0.7449 0.0 0
M  V30 12 C 5.2026 1.5016 0.0 0
M  V30 13 C -5.2026 0.0118 0.0 0
M  V30 14 C 6.5033 2.2465 0.0 0
M  V30 15 C 7.8039 1.5016 0.0 0
M  V30 16 C 9.1046 2.2465 0.0 0
M  V30 17 C 10.4052 1.5016 0.0 0
M  V30 18 C 11.7059 2.2465 0.0 0
M  V30 END ATOM
M  V30 BEGIN BOND
M  V30 1 2 1 2
M  V30 2 1 2 3
M  V30 3 1 2 4
M  V30 4 1 3 5
M  V30 5 1 4 6
M  V30 6 1 5 7
M  V30 7 1 5 8
M  V30 8 1 6 9
M  V30 9 1 7 10
M  V30 10 1 8 11
M  V30 11 1 9 12
M  V30 12 1 10 13
M  V30 13 1 12 14
M  V30 14 1 14 15
M  V30 15 1 15 16
M  V30 16 1 16 17
M  V30 17 1 17 18
M  V30 18 1 11 13
M  V30 END BOND
M  V30 END CTAB
M  END
>  <Molecule Name>
Capric acid, cyclohexyl ester

>  <Activity Label>
0

>  <SMILES>
CCCCCCCCCC(OC1CCCCC1)=O

>  <Molecular Formula>
C16H30O2

>  <InChIKey>
FNQCJNQUVQXXJN-UHFFFAOYSA-N

>  <Repellency>
Inactive

>  <Reference DOI>
10.3390/toxics11100837

>  <Target Organism>
Not applied

$$$$
Compound 881
Actelion Java MolfileCreator 2.0

  0  0  0  0  0  0              0 V3000
M  V30 BEGIN CTAB
M  V30 COUNTS 18 18 0 0 0
M  V30 BEGIN ATOM
M  V30 1 O 0.0 0.0 0.0 0
M  V30 2 C -0.8864 1.2173 0.0 0
M  V30 3 O -2.3757 1.0637 0.0 0
M  V30 4 C -0.2718 2.5884 0.0 0
M  V30 5 C -2.9903 -0.3073 0.0 0
M  V30 6 O 1.1937 2.8957 0.0 0
M  V30 7 C -1.0164 3.8885 0.0 0
M  V30 8 C 1.3474 4.385 0.0 0
M  V30 9 O -0.0118 4.9996 0.0 0
M  V30 10 C -2.5057 4.0422 0.0 0
M  V30 11 C 2.6475 5.1296 0.0 0
M  V30 12 C 2.612 3.5694 0.0 0
M  V30 13 O -3.3921 2.8248 0.0 0
M  V30 14 O -3.1203 5.4132 0.0 0
M  V30 15 C 3.9476 4.3731 0.0 0
M  V30 16 C -4.6095 5.5669 0.0 0
M  V30 17 C 5.2478 5.1178 0.0 0
M  V30 18 C 3.9476 2.8721 0.0 0
M  V30 END ATOM
M  V30 BEGIN BOND
M  V30 1 2 1 2
M  V30 2 1 2 3
M  V30 3 1 2 4
M  V30 4 1 3 5
M  V30 5 1 4 6
M  V30 6 1 4 7
M  V30 7 1 6 8
M  V30 8 1 7 9
M  V30 9 1 7 10
M  V30 10 1 8 11
M  V30 11 1 8 12
M  V30 12 2 10 13
M  V30 13 1 10 14
M  V30 14 2 11 15
M  V30 15 1 14 16
M  V30 16 1 15 17
M  V30 17 1 15 18
M  V30 18 1 8 9
M  V30 END BOND
M  V30 END CTAB
M  END
>  <Molecule Name>
2-iso-Butenyl-2-methyl-1,3-dioxolane-4,5-dicarboxylic acid, dimethyl ester

>  <Activity Label>
0

>  <SMILES>
CC(C=C(C)C)(OC1C(OC)=O)OC1C(OC)=O

>  <Molecular Formula>
C12H18O6

>  <InChIKey>
NSQNQGFGPANFEY-UHFFFAOYSA-N

>  <Repellency>
Inactive

>  <Reference DOI>
10.3390/toxics11100837

>  <Target Organism>
Not applied

$$$$
Compound 882
Actelion Java MolfileCreator 2.0

  0  0  0  0  0  0              0 V3000
M  V30 BEGIN CTAB
M  V30 COUNTS 18 18 0 0 0
M  V30 BEGIN ATOM
M  V30 1 O 0.0 0.0 0.0 0
M  V30 2 C -0.8864 1.2173 0.0 0
M  V30 3 O -2.3757 1.0637 0.0 0
M  V30 4 C -0.2718 2.5884 0.0 0
M  V30 5 C -2.9903 -0.3073 0.0 0
M  V30 6 O 1.1937 2.8957 0.0 0
M  V30 7 C -1.0164 3.8885 0.0 0
M  V30 8 C 1.3474 4.385 0.0 0
M  V30 9 O -0.0118 4.9996 0.0 0
M  V30 10 C -2.5057 4.0422 0.0 0
M  V30 11 C 2.6475 5.1296 0.0 0
M  V30 12 C 2.612 3.5694 0.0 0
M  V30 13 O -3.3921 2.8248 0.0 0
M  V30 14 O -3.1203 5.4132 0.0 0
M  V30 15 C 3.9476 4.3731 0.0 0
M  V30 16 C -4.6095 5.5669 0.0 0
M  V30 17 C 5.2478 5.1178 0.0 0
M  V30 18 C 3.9476 2.8721 0.0 0
M  V30 END ATOM
M  V30 BEGIN BOND
M  V30 1 2 1 2
M  V30 2 1 2 3
M  V30 3 1 2 4
M  V30 4 1 3 5
M  V30 5 1 4 6
M  V30 6 1 4 7
M  V30 7 1 6 8
M  V30 8 1 7 9
M  V30 9 1 7 10
M  V30 10 1 8 11
M  V30 11 1 8 12
M  V30 12 2 10 13
M  V30 13 1 10 14
M  V30 14 1 11 15
M  V30 15 1 14 16
M  V30 16 1 15 17
M  V30 17 1 15 18
M  V30 18 1 8 9
M  V30 END BOND
M  V30 END CTAB
M  END
>  <Molecule Name>
2-iso-Butyl-2-methyl-1,3-dioxolane-4,5-dicarboxylic acid, dimethyl ester

>  <Activity Label>
0

>  <SMILES>
CC(C)CC(C)(OC1C(OC)=O)OC1C(OC)=O

>  <Molecular Formula>
C12H20O6

>  <InChIKey>
LZMRVTCMUVBNFN-UHFFFAOYSA-N

>  <Repellency>
Inactive

>  <Reference DOI>
10.3390/toxics11100837

>  <Target Organism>
Not applied

$$$$
Compound 883
Actelion Java MolfileCreator 2.0

  0  0  0  0  0  0              0 V3000
M  V30 BEGIN CTAB
M  V30 COUNTS 18 18 0 0 0
M  V30 BEGIN ATOM
M  V30 1 O 0.0 0.0 0.0 0
M  V30 2 C 0.0 -1.4992 0.0 0
M  V30 3 C -1.2985 -2.2547 0.0 0
M  V30 4 C 1.2985 -2.2547 0.0 0
M  V30 5 C -2.597 -1.511 0.0 0
M  V30 6 C -1.2985 -3.7539 0.0 0
M  V30 7 C 2.597 -1.511 0.0 0
M  V30 8 C -3.8956 -2.2665 0.0 0
M  V30 9 C 0.0 -4.4976 0.0 0
M  V30 10 C 2.597 -0.0118 0.0 0
M  V30 11 C 3.8956 -2.2665 0.0 0
M  V30 12 C -5.1941 -1.5228 0.0 0
M  V30 13 C 3.8956 0.7319 0.0 0
M  V30 14 C 1.2985 0.7437 0.0 0
M  V30 15 C 5.1941 -1.5228 0.0 0
M  V30 16 C -6.4926 -2.2783 0.0 0
M  V30 17 C 5.1941 -0.0118 0.0 0
M  V30 18 C 6.4926 -2.2783 0.0 0
M  V30 END ATOM
M  V30 BEGIN BOND
M  V30 1 1 1 2
M  V30 2 1 2 3
M  V30 3 1 2 4
M  V30 4 1 3 5
M  V30 5 1 3 6
M  V30 6 1 4 7
M  V30 7 1 5 8
M  V30 8 1 6 9
M  V30 9 2 7 10
M  V30 10 1 7 11
M  V30 11 1 8 12
M  V30 12 1 10 13
M  V30 13 1 10 14
M  V30 14 2 11 15
M  V30 15 1 12 16
M  V30 16 2 13 17
M  V30 17 1 15 18
M  V30 18 1 15 17
M  V30 END BOND
M  V30 END CTAB
M  END
>  <Molecule Name>
1-(2,5-Dimethylphenyl)-3-ethyl-2-heptanol

>  <Activity Label>
0

>  <SMILES>
CCCCC(CC)C(Cc1c(C)ccc(C)c1)O

>  <Molecular Formula>
C17H28O

>  <InChIKey>
BEMJNXHSUOBYIJ-UHFFFAOYSA-N

>  <Repellency>
Inactive

>  <Reference DOI>
10.3390/toxics11100837

>  <Target Organism>
Not applied

$$$$
Compound 884
Actelion Java MolfileCreator 2.0

  0  0  0  0  0  0              0 V3000
M  V30 BEGIN CTAB
M  V30 COUNTS 18 18 0 0 0
M  V30 BEGIN ATOM
M  V30 1 O 0.0 0.0 0.0 0
M  V30 2 C 0.0 -1.4997 0.0 0
M  V30 3 O -1.2989 -2.2554 0.0 0
M  V30 4 C 1.2989 -2.2554 0.0 0
M  V30 5 C -2.5979 -1.5115 0.0 0
M  V30 6 C 2.5979 -1.4997 0.0 0
M  V30 7 C 1.2989 -3.7551 0.0 0
M  V30 8 C -3.8968 -2.2672 0.0 0
M  V30 9 C 3.8968 -2.2436 0.0 0
M  V30 10 C 2.5979 -4.4991 0.0 0
M  V30 11 O -5.1958 -1.5233 0.0 0
M  V30 12 C 3.8968 -3.7433 0.0 0
M  V30 13 C -6.4947 -2.279 0.0 0
M  V30 14 O 5.1958 -4.4872 0.0 0
M  V30 15 C -7.7937 -1.5351 0.0 0
M  V30 16 O -9.0926 -2.2908 0.0 0
M  V30 17 C -10.3916 -1.5469 0.0 0
M  V30 18 C -11.6905 -2.3026 0.0 0
M  V30 END ATOM
M  V30 BEGIN BOND
M  V30 1 2 1 2
M  V30 2 1 2 3
M  V30 3 1 2 4
M  V30 4 1 3 5
M  V30 5 2 4 6
M  V30 6 1 4 7
M  V30 7 1 5 8
M  V30 8 1 6 9
M  V30 9 2 7 10
M  V30 10 1 8 11
M  V30 11 2 9 12
M  V30 12 1 11 13
M  V30 13 1 12 14
M  V30 14 1 13 15
M  V30 15 1 15 16
M  V30 16 1 16 17
M  V30 17 1 17 18
M  V30 18 1 10 12
M  V30 END BOND
M  V30 END CTAB
M  END
>  <Molecule Name>
p-Hydroxybenzoic acid, 2-(2-ethoxyethoxy)ethyl ester

>  <Activity Label>
0

>  <SMILES>
CCOCCOCCOC(c(cc1)ccc1O)=O

>  <Molecular Formula>
C13H18O5

>  <InChIKey>
JAQAWHAFUFTDDH-UHFFFAOYSA-N

>  <Repellency>
Inactive

>  <Reference DOI>
10.3390/toxics11100837

>  <Target Organism>
Not applied

$$$$
Compound 885
Actelion Java MolfileCreator 2.0

  0  0  0  0  0  0              0 V3000
M  V30 BEGIN CTAB
M  V30 COUNTS 18 18 0 0 0
M  V30 BEGIN ATOM
M  V30 1 O 0.0 0.0 0.0 0
M  V30 2 C 1.2995 -0.756 0.0 0
M  V30 3 O 1.2995 -2.2564 0.0 0
M  V30 4 C 2.599 -0.0118 0.0 0
M  V30 5 C 0.0 -3.0007 0.0 0
M  V30 6 C 2.599 1.4885 0.0 0
M  V30 7 C 3.8986 -0.756 0.0 0
M  V30 8 C 0.0 -4.5011 0.0 0
M  V30 9 C 1.2995 2.2328 0.0 0
M  V30 10 C 3.8986 2.2446 0.0 0
M  V30 11 C 5.1981 0.0 0.0 0
M  V30 12 O 1.2995 -5.2572 0.0 0
M  V30 13 C -1.2995 -5.2572 0.0 0
M  V30 14 O 1.2995 3.7332 0.0 0
M  V30 15 O 0.0 1.4885 0.0 0
M  V30 16 C 5.1981 1.5003 0.0 0
M  V30 17 C -1.2995 2.2328 0.0 0
M  V30 18 C -2.599 1.4885 0.0 0
M  V30 END ATOM
M  V30 BEGIN BOND
M  V30 1 2 1 2
M  V30 2 1 2 3
M  V30 3 1 2 4
M  V30 4 1 3 5
M  V30 5 2 4 6
M  V30 6 1 4 7
M  V30 7 1 5 8
M  V30 8 1 6 9
M  V30 9 1 6 10
M  V30 10 2 7 11
M  V30 11 2 8 12
M  V30 12 1 8 13
M  V30 13 2 9 14
M  V30 14 1 9 15
M  V30 15 2 10 16
M  V30 16 1 15 17
M  V30 17 1 17 18
M  V30 18 1 11 16
M  V30 END BOND
M  V30 END CTAB
M  END
>  <Molecule Name>
Phthalic acid, ethyl acetonyl ester

>  <Activity Label>
0

>  <SMILES>
CCOC(c(cccc1)c1C(OCC(C)=O)=O)=O

>  <Molecular Formula>
C13H14O5

>  <InChIKey>
AMYJRAWSSRXQRP-UHFFFAOYSA-N

>  <Repellency>
Inactive

>  <Reference DOI>
10.3390/toxics11100837

>  <Target Organism>
Not applied

$$$$
Compound 886
Actelion Java MolfileCreator 2.0

  0  0  0  0  0  0              0 V3000
M  V30 BEGIN CTAB
M  V30 COUNTS 18 18 0 0 0
M  V30 BEGIN ATOM
M  V30 1 O 0.0 0.0 0.0 0
M  V30 2 C 0.0 -1.5016 0.0 0
M  V30 3 O -1.3006 -2.2466 0.0 0
M  V30 4 C 1.3006 -2.2466 0.0 0
M  V30 5 C -2.6013 -1.5016 0.0 0
M  V30 6 C 2.6013 -1.5016 0.0 0
M  V30 7 C -3.902 -2.2466 0.0 0
M  V30 8 O 2.6013 0.0 0.0 0
M  V30 9 C 3.902 -2.2466 0.0 0
M  V30 10 C 3.902 -3.7483 0.0 0
M  V30 11 C 5.2027 -1.5016 0.0 0
M  V30 12 C 5.2027 -4.4932 0.0 0
M  V30 13 C 6.5033 -2.2466 0.0 0
M  V30 14 O 5.2027 -5.9949 0.0 0
M  V30 15 C 6.5033 -3.7483 0.0 0
M  V30 16 C 6.5033 -6.7516 0.0 0
M  V30 17 O 7.804 -4.4932 0.0 0
M  V30 18 C 9.1047 -3.7483 0.0 0
M  V30 END ATOM
M  V30 BEGIN BOND
M  V30 1 2 1 2
M  V30 2 1 2 3
M  V30 3 1 2 4
M  V30 4 1 3 5
M  V30 5 1 4 6
M  V30 6 1 5 7
M  V30 7 2 6 8
M  V30 8 1 6 9
M  V30 9 2 9 10
M  V30 10 1 9 11
M  V30 11 1 10 12
M  V30 12 2 11 13
M  V30 13 1 12 14
M  V30 14 2 12 15
M  V30 15 1 14 16
M  V30 16 1 15 17
M  V30 17 1 17 18
M  V30 18 1 13 15
M  V30 END BOND
M  V30 END CTAB
M  END
>  <Molecule Name>
Veratroylacetic acid, ethyl ester

>  <Activity Label>
0

>  <SMILES>
CCOC(CC(c(cc1)cc(OC)c1OC)=O)=O

>  <Molecular Formula>
C13H16O5

>  <InChIKey>
BHSYONGONOKNAI-UHFFFAOYSA-N

>  <Repellency>
Inactive

>  <Reference DOI>
10.3390/toxics11100837

>  <Target Organism>
Not applied

$$$$
Compound 887
Actelion Java MolfileCreator 2.0

  0  0  0  0  0  0              0 V3000
M  V30 BEGIN CTAB
M  V30 COUNTS 18 18 0 0 0
M  V30 BEGIN ATOM
M  V30 1 O 0.0 0.0 0.0 0
M  V30 2 C 0.0 -1.499 0.0 0
M  V30 3 O -1.2983 -2.2544 0.0 0
M  V30 4 C 1.2983 -2.2544 0.0 0
M  V30 5 C -2.5967 -1.5108 0.0 0
M  V30 6 C 1.2983 -3.7535 0.0 0
M  V30 7 C 2.5967 -1.5108 0.0 0
M  V30 8 C -3.8951 -2.2662 0.0 0
M  V30 9 O 0.0 -4.5089 0.0 0
M  V30 10 C 2.5967 -4.5089 0.0 0
M  V30 11 C 3.8951 -2.2544 0.0 0
M  V30 12 C -5.1935 -1.5226 0.0 0
M  V30 13 C 3.8951 -3.7653 0.0 0
M  V30 14 C -6.4919 -2.278 0.0 0
M  V30 15 C -7.7903 -1.5344 0.0 0
M  V30 16 C -9.0887 -2.2898 0.0 0
M  V30 17 C -10.387 -1.5462 0.0 0
M  V30 18 C -11.6854 -2.3016 0.0 0
M  V30 END ATOM
M  V30 BEGIN BOND
M  V30 1 2 1 2
M  V30 2 1 2 3
M  V30 3 1 2 4
M  V30 4 1 3 5
M  V30 5 2 4 6
M  V30 6 1 4 7
M  V30 7 1 5 8
M  V30 8 1 6 9
M  V30 9 1 6 10
M  V30 10 2 7 11
M  V30 11 1 8 12
M  V30 12 2 10 13
M  V30 13 1 12 14
M  V30 14 1 14 15
M  V30 15 1 15 16
M  V30 16 1 16 17
M  V30 17 1 17 18
M  V30 18 1 11 13
M  V30 END BOND
M  V30 END CTAB
M  END
>  <Molecule Name>
Salicylic acid, n-octyl ester

>  <Activity Label>
0

>  <SMILES>
CCCCCCCCOC(c(cccc1)c1O)=O

>  <Molecular Formula>
C15H22O3

>  <InChIKey>
WCJLCOAEJIHPCW-UHFFFAOYSA-N

>  <Repellency>
Inactive

>  <Reference DOI>
10.3390/toxics11100837

>  <Target Organism>
Not applied

$$$$
Compound 888
Actelion Java MolfileCreator 2.0

  0  0  0  0  0  0              0 V3000
M  V30 BEGIN CTAB
M  V30 COUNTS 18 18 0 0 0
M  V30 BEGIN ATOM
M  V30 1 O 0.0 0.0 0.0 0
M  V30 2 C 0.0 -1.4995 0.0 0
M  V30 3 O -1.2988 -2.2551 0.0 0
M  V30 4 C 1.2988 -2.2551 0.0 0
M  V30 5 C -2.5976 -1.5113 0.0 0
M  V30 6 C 2.5976 -1.5113 0.0 0
M  V30 7 C -3.8964 -2.267 0.0 0 CFG=2
M  V30 8 C 3.8964 -2.267 0.0 0
M  V30 9 O -4.652 -3.5658 0.0 0
M  V30 10 C -5.3959 -2.267 0.0 0
M  V30 11 C 5.1952 -1.5231 0.0 0
M  V30 12 C 6.494 -2.2788 0.0 0
M  V30 13 C 7.7928 -1.5349 0.0 0
M  V30 14 C 9.0916 -2.2906 0.0 0
M  V30 15 C 10.3904 -1.5467 0.0 0
M  V30 16 C 11.6892 -2.3024 0.0 0
M  V30 17 C 12.988 -1.5585 0.0 0
M  V30 18 C 14.2868 -2.3142 0.0 0
M  V30 END ATOM
M  V30 BEGIN BOND
M  V30 1 2 1 2
M  V30 2 1 2 3
M  V30 3 1 2 4
M  V30 4 1 3 5
M  V30 5 1 4 6
M  V30 6 1 7 5 CFG=3
M  V30 7 1 6 8
M  V30 8 1 7 9
M  V30 9 1 7 10
M  V30 10 1 8 11
M  V30 11 1 11 12
M  V30 12 1 12 13
M  V30 13 1 13 14
M  V30 14 1 14 15
M  V30 15 1 15 16
M  V30 16 1 16 17
M  V30 17 1 17 18
M  V30 18 1 9 10
M  V30 END BOND
M  V30 BEGIN COLLECTION
M  V30 MDLV30/STERAC1 ATOMS=(1 7)
M  V30 END COLLECTION
M  V30 END CTAB
M  END
>  <Molecule Name>
Lauric acid, glycidyl ester

>  <Activity Label>
0

>  <SMILES>
CCCCCCCCCCCC(OCC1OC1)=O

>  <Molecular Formula>
C15H28O3

>  <InChIKey>
PTLZMJYQEBOHHM-UHFFFAOYSA-N

>  <Repellency>
Inactive

>  <Reference DOI>
10.3390/toxics11100837

>  <Target Organism>
Not applied

$$$$
Compound 889
Actelion Java MolfileCreator 2.0

  0  0  0  0  0  0              0 V3000
M  V30 BEGIN CTAB
M  V30 COUNTS 18 18 0 0 0
M  V30 BEGIN ATOM
M  V30 1 O 0.0 0.0 0.0 0
M  V30 2 C 0.0 -1.4999 0.0 0
M  V30 3 O -1.2991 -2.2557 0.0 0
M  V30 4 C 1.2991 -2.2557 0.0 0
M  V30 5 C -2.5982 -1.5117 0.0 0
M  V30 6 C 2.5982 -1.5117 0.0 0
M  V30 7 C -3.8973 -2.2675 0.0 0 CFG=2
M  V30 8 C 3.8973 -2.2675 0.0 0
M  V30 9 O -4.0509 -3.7556 0.0 0
M  V30 10 C -5.2673 -1.6534 0.0 0
M  V30 11 C 5.1965 -1.5235 0.0 0
M  V30 12 C -5.5153 -4.0627 0.0 0
M  V30 13 C -6.2712 -2.7636 0.0 0
M  V30 14 C 6.4956 -2.2793 0.0 0
M  V30 15 C 7.7947 -1.5353 0.0 0
M  V30 16 C 9.0939 -2.2911 0.0 0
M  V30 17 C 10.393 -1.5471 0.0 0
M  V30 18 C 11.6921 -2.303 0.0 0
M  V30 END ATOM
M  V30 BEGIN BOND
M  V30 1 2 1 2
M  V30 2 1 2 3
M  V30 3 1 2 4
M  V30 4 1 3 5
M  V30 5 1 4 6
M  V30 6 1 7 5 CFG=3
M  V30 7 1 6 8
M  V30 8 1 7 9
M  V30 9 1 7 10
M  V30 10 1 8 11
M  V30 11 1 9 12
M  V30 12 1 10 13
M  V30 13 1 11 14
M  V30 14 1 14 15
M  V30 15 1 15 16
M  V30 16 1 16 17
M  V30 17 1 17 18
M  V30 18 1 12 13
M  V30 END BOND
M  V30 BEGIN COLLECTION
M  V30 MDLV30/STERAC1 ATOMS=(1 7)
M  V30 END COLLECTION
M  V30 END CTAB
M  END
>  <Molecule Name>
Decanoic acid, tetrahydrofurfuryl ester

>  <Activity Label>
0

>  <SMILES>
CCCCCCCCCC(OCC1OCCC1)=O

>  <Molecular Formula>
C15H28O3

>  <InChIKey>
GYTUYBAUQSCUQU-UHFFFAOYSA-N

>  <Repellency>
Inactive

>  <Reference DOI>
10.3390/toxics11100837

>  <Target Organism>
Not applied

$$$$
Compound 890
Actelion Java MolfileCreator 2.0

  0  0  0  0  0  0              0 V3000
M  V30 BEGIN CTAB
M  V30 COUNTS 18 18 0 0 0
M  V30 BEGIN ATOM
M  V30 1 O 0.0 0.0 0.0 0
M  V30 2 C 0.0 1.4995 0.0 0
M  V30 3 O -1.2988 2.2434 0.0 0
M  V30 4 C 1.2988 2.2434 0.0 0
M  V30 5 C -2.5976 1.4877 0.0 0
M  V30 6 C 2.5976 1.4877 0.0 0
M  V30 7 C -3.8964 2.2316 0.0 0
M  V30 8 C 3.8964 2.2316 0.0 0
M  V30 9 C -5.1952 1.4759 0.0 0
M  V30 10 O 3.8964 3.7311 0.0 0
M  V30 11 C 5.1952 1.4759 0.0 0
M  V30 12 C 6.4941 2.2198 0.0 0
M  V30 13 C 7.7929 1.4641 0.0 0
M  V30 14 C 7.7929 -0.0354 0.0 0
M  V30 15 C 9.0917 2.2079 0.0 0
M  V30 16 C 9.0917 -0.791 0.0 0
M  V30 17 C 10.3905 1.4641 0.0 0
M  V30 18 C 10.3905 -0.0472 0.0 0
M  V30 END ATOM
M  V30 BEGIN BOND
M  V30 1 2 1 2
M  V30 2 1 2 3
M  V30 3 1 2 4
M  V30 4 1 3 5
M  V30 5 1 4 6
M  V30 6 1 5 7
M  V30 7 1 6 8
M  V30 8 1 7 9
M  V30 9 2 8 10
M  V30 10 1 8 11
M  V30 11 2 11 12 CFG=2
M  V30 12 1 12 13
M  V30 13 2 13 14
M  V30 14 1 13 15
M  V30 15 1 14 16
M  V30 16 2 15 17
M  V30 17 2 16 18
M  V30 18 1 17 18
M  V30 END BOND
M  V30 END CTAB
M  END
>  <Molecule Name>
delta-Benzallevulinic acid, n-propyl ester

>  <Activity Label>
0

>  <SMILES>
CCCOC(CCC(C=Cc1ccccc1)=O)=O

>  <Molecular Formula>
C15H18O3

>  <InChIKey>
ISSNEFKFZJOKEH-UHFFFAOYSA-N

>  <Repellency>
Inactive

>  <Reference DOI>
10.3390/toxics11100837

>  <Target Organism>
Not applied

$$$$
Compound 891
Actelion Java MolfileCreator 2.0

  0  0  0  0  0  0              0 V3000
M  V30 BEGIN CTAB
M  V30 COUNTS 18 18 0 0 0
M  V30 BEGIN ATOM
M  V30 1 O 0.0 0.0 0.0 0
M  V30 2 C 0.0 -1.5001 0.0 0
M  V30 3 O -1.2993 -2.2562 0.0 0
M  V30 4 C 1.2993 -2.2562 0.0 0
M  V30 5 C -2.5987 -1.512 0.0 0 CFG=2
M  V30 6 C 2.5987 -1.512 0.0 0
M  V30 7 C -2.5987 -0.0118 0.0 0
M  V30 8 C -3.8981 -2.268 0.0 0
M  V30 9 C 3.8981 -2.268 0.0 0
M  V30 10 C -1.2993 0.7323 0.0 0
M  V30 11 C -3.8981 0.7441 0.0 0
M  V30 12 O -5.1975 -1.5238 0.0 0
M  V30 13 C -1.2993 2.2325 0.0 0
M  V30 14 C -3.8981 2.2443 0.0 0
M  V30 15 C -6.4969 -2.2798 0.0 0
M  V30 16 C -2.5987 2.9767 0.0 0
M  V30 17 C -7.7963 -1.5356 0.0 0
M  V30 18 C -9.0956 -2.2916 0.0 0
M  V30 END ATOM
M  V30 BEGIN BOND
M  V30 1 2 1 2
M  V30 2 1 2 3
M  V30 3 1 2 4
M  V30 4 1 5 3 CFG=1
M  V30 5 2 4 6
M  V30 6 1 5 7
M  V30 7 1 5 8
M  V30 8 1 6 9
M  V30 9 2 7 10
M  V30 10 1 7 11
M  V30 11 1 8 12
M  V30 12 1 10 13
M  V30 13 2 11 14
M  V30 14 1 12 15
M  V30 15 2 13 16
M  V30 16 1 15 17
M  V30 17 1 17 18
M  V30 18 1 14 16
M  V30 END BOND
M  V30 BEGIN COLLECTION
M  V30 MDLV30/STERAC1 ATOMS=(1 5)
M  V30 END COLLECTION
M  V30 END CTAB
M  END
>  <Molecule Name>
Crotonic acid, beta-propoxy-alpha-phenylethyl ester

>  <Activity Label>
0

>  <SMILES>
CCCOCC(c1ccccc1)OC(/C=C/C)=O

>  <Molecular Formula>
C15H20O3

>  <InChIKey>
HNHRKTHRWGYFDD-FPYGCLRLSA-N

>  <Repellency>
Inactive

>  <Reference DOI>
10.3390/toxics11100837

>  <Target Organism>
Not applied

$$$$
Compound 892
Actelion Java MolfileCreator 2.0

  0  0  0  0  0  0              0 V3000
M  V30 BEGIN CTAB
M  V30 COUNTS 18 18 0 0 0
M  V30 BEGIN ATOM
M  V30 1 O 0.0 0.0 0.0 0
M  V30 2 C 0.0 -1.499 0.0 0
M  V30 3 O -1.2984 -2.2544 0.0 0
M  V30 4 C 1.2984 -2.2544 0.0 0
M  V30 5 C -2.5968 -1.5108 0.0 0
M  V30 6 C 2.5968 -1.5108 0.0 0
M  V30 7 C -2.5968 -0.0118 0.0 0
M  V30 8 C -3.8952 -2.2663 0.0 0
M  V30 9 C 3.8952 -2.2663 0.0 0
M  V30 10 C 5.1936 -1.5226 0.0 0
M  V30 11 C 6.492 -2.2781 0.0 0
M  V30 12 O 6.492 -3.7771 0.0 0
M  V30 13 C 7.7904 -1.5344 0.0 0
M  V30 14 C 9.0888 -2.2899 0.0 0
M  V30 15 C 7.7904 -0.0354 0.0 0
M  V30 16 C 10.3872 -1.5344 0.0 0
M  V30 17 C 9.0888 0.72 0.0 0
M  V30 18 C 10.3872 -0.0354 0.0 0
M  V30 END ATOM
M  V30 BEGIN BOND
M  V30 1 2 1 2
M  V30 2 1 2 3
M  V30 3 1 2 4
M  V30 4 1 3 5
M  V30 5 1 4 6
M  V30 6 1 5 7
M  V30 7 1 5 8
M  V30 8 1 6 9
M  V30 9 1 9 10
M  V30 10 1 10 11
M  V30 11 2 11 12
M  V30 12 1 11 13
M  V30 13 2 13 14
M  V30 14 1 13 15
M  V30 15 1 14 16
M  V30 16 2 15 17
M  V30 17 2 16 18
M  V30 18 1 17 18
M  V30 END BOND
M  V30 END CTAB
M  END
>  <Molecule Name>
delta-Benzoylvaleric acid, iso-propyl ester

>  <Activity Label>
0

>  <SMILES>
CC(C)OC(CCCCC(c1ccccc1)=O)=O

>  <Molecular Formula>
C15H20O3

>  <InChIKey>
JUKNNNFBSOAAOZ-UHFFFAOYSA-N

>  <Repellency>
Inactive

>  <Reference DOI>
10.3390/toxics11100837

>  <Target Organism>
Not applied

$$$$
Compound 893
Actelion Java MolfileCreator 2.0

  0  0  0  0  0  0              0 V3000
M  V30 BEGIN CTAB
M  V30 COUNTS 18 18 0 0 0
M  V30 BEGIN ATOM
M  V30 1 O 0.0 0.0 0.0 0
M  V30 2 C 0.0 -1.4995 0.0 0
M  V30 3 O -1.2988 -2.2552 0.0 0
M  V30 4 C 1.2988 -2.2552 0.0 0
M  V30 5 C -2.5976 -1.5113 0.0 0
M  V30 6 C 2.5976 -1.5113 0.0 0
M  V30 7 C 1.2988 -3.7547 0.0 0
M  V30 8 C -3.8964 -2.267 0.0 0 CFG=2
M  V30 9 C 3.8964 -2.267 0.0 0
M  V30 10 C 2.5976 -4.5104 0.0 0
M  V30 11 C -5.1952 -1.5231 0.0 0
M  V30 12 C -3.8964 -3.7665 0.0 0
M  V30 13 C 3.8964 -3.7665 0.0 0
M  V30 14 C -6.4941 -2.2788 0.0 0
M  V30 15 C -2.5976 -4.5104 0.0 0
M  V30 16 O 5.1952 -4.5222 0.0 0
M  V30 17 C -7.7929 -1.5349 0.0 0
M  V30 18 C -9.0917 -2.2906 0.0 0
M  V30 END ATOM
M  V30 BEGIN BOND
M  V30 1 2 1 2
M  V30 2 1 2 3
M  V30 3 1 2 4
M  V30 4 1 3 5
M  V30 5 2 4 6
M  V30 6 1 4 7
M  V30 7 1 8 5 CFG=1
M  V30 8 1 6 9
M  V30 9 2 7 10
M  V30 10 1 8 11
M  V30 11 1 8 12
M  V30 12 2 9 13
M  V30 13 1 11 14
M  V30 14 1 12 15
M  V30 15 1 13 16
M  V30 16 1 14 17
M  V30 17 1 17 18
M  V30 18 1 10 13
M  V30 END BOND
M  V30 BEGIN COLLECTION
M  V30 MDLV30/STERAC1 ATOMS=(1 8)
M  V30 END COLLECTION
M  V30 END CTAB
M  END
>  <Molecule Name>
p-Hydroxybenzoic acid, 2-ethyl-hexyl ester

>  <Activity Label>
0

>  <SMILES>
CCCCC(CC)COC(c(cc1)ccc1O)=O

>  <Molecular Formula>
C15H22O3

>  <InChIKey>
VTIMKVIDORQQFA-UHFFFAOYSA-N

>  <Repellency>
Inactive

>  <Reference DOI>
10.3390/toxics11100837

>  <Target Organism>
Not applied

$$$$
Compound 894
Actelion Java MolfileCreator 2.0

  0  0  0  0  0  0              0 V3000
M  V30 BEGIN CTAB
M  V30 COUNTS 18 18 0 0 0
M  V30 BEGIN ATOM
M  V30 1 O 0.0 0.0 0.0 0
M  V30 2 N 0.0 1.4995 0.0 0 CHG=1
M  V30 3 O 1.2988 2.2434 0.0 0 CHG=-1
M  V30 4 C -1.2988 2.2552 0.0 0
M  V30 5 C -2.5976 1.5113 0.0 0
M  V30 6 C -1.2988 3.7547 0.0 0
M  V30 7 C -3.8964 2.267 0.0 0
M  V30 8 C -2.5976 4.5104 0.0 0
M  V30 9 C -5.1952 1.5231 0.0 0
M  V30 10 C -3.8964 3.7665 0.0 0
M  V30 11 O -6.4941 2.2788 0.0 0
M  V30 12 N -5.1952 0.0236 0.0 0
M  V30 13 C -3.8964 -0.732 0.0 0
M  V30 14 C -6.4941 -0.732 0.0 0
M  V30 15 C -2.5976 0.0118 0.0 0
M  V30 16 C -7.7929 0.0118 0.0 0
M  V30 17 C -1.2988 -0.7438 0.0 0
M  V30 18 C -9.0917 -0.7438 0.0 0
M  V30 END ATOM
M  V30 BEGIN BOND
M  V30 1 2 1 2
M  V30 2 1 2 3
M  V30 3 1 2 4
M  V30 4 2 4 5
M  V30 5 1 4 6
M  V30 6 1 5 7
M  V30 7 2 6 8
M  V30 8 1 7 9
M  V30 9 2 7 10
M  V30 10 2 9 11
M  V30 11 1 9 12
M  V30 12 1 12 13
M  V30 13 1 12 14
M  V30 14 1 13 15
M  V30 15 1 14 16
M  V30 16 1 15 17
M  V30 17 1 16 18
M  V30 18 1 8 10
M  V30 END BOND
M  V30 END CTAB
M  END
>  <Molecule Name>
N,N-Dipropyl-m-nitrobenzamide

>  <Activity Label>
0

>  <SMILES>
CCCN(CCC)C(c1cccc([N+]([O-])=O)c1)=O

>  <Molecular Formula>
C13H18N2O3

>  <InChIKey>
JIPRMVHOCIYIKR-UHFFFAOYSA-N

>  <Repellency>
Inactive

>  <Reference DOI>
10.3390/toxics11100837

>  <Target Organism>
Not applied

$$$$
Compound 895
Actelion Java MolfileCreator 2.0

  0  0  0  0  0  0              0 V3000
M  V30 BEGIN CTAB
M  V30 COUNTS 18 18 0 0 0
M  V30 BEGIN ATOM
M  V30 1 O 0.0 0.0 0.0 0
M  V30 2 C 1.2989 0.7557 0.0 0
M  V30 3 O 1.2989 2.2554 0.0 0
M  V30 4 C 2.5979 0.0 0.0 0
M  V30 5 C 2.5979 2.9994 0.0 0
M  V30 6 C 3.8969 0.7439 0.0 0
M  V30 7 C 2.5979 -1.4997 0.0 0
M  V30 8 C 2.5979 4.4991 0.0 0
M  V30 9 N 5.1958 1.4879 0.0 0
M  V30 10 C 3.8969 -2.2554 0.0 0
M  V30 11 C 1.2989 -2.2554 0.0 0
M  V30 12 C 3.8969 -3.7552 0.0 0
M  V30 13 C 5.1958 -1.5115 0.0 0
M  V30 14 C 0.0 -1.5115 0.0 0
M  V30 15 C 5.1958 -4.5109 0.0 0
M  V30 16 C 6.4948 -2.2672 0.0 0
M  V30 17 C -1.2989 -2.2672 0.0 0
M  V30 18 C 6.4948 -3.767 0.0 0
M  V30 END ATOM
M  V30 BEGIN BOND
M  V30 1 2 1 2
M  V30 2 1 2 3
M  V30 3 1 2 4
M  V30 4 1 3 5
M  V30 5 1 4 6
M  V30 6 2 4 7 CFG=2
M  V30 7 1 5 8
M  V30 8 3 6 9
M  V30 9 1 7 10
M  V30 10 1 7 11
M  V30 11 2 10 12
M  V30 12 1 10 13
M  V30 13 1 11 14
M  V30 14 1 12 15
M  V30 15 2 13 16
M  V30 16 1 14 17
M  V30 17 2 15 18
M  V30 18 1 16 18
M  V30 END BOND
M  V30 END CTAB
M  END
>  <Molecule Name>
(1-Phenylbutylidene)cyanoacetic acid, ethyl ester

>  <Activity Label>
0

>  <SMILES>
CCCC(c1ccccc1)=C(C(OCC)=O)C#N

>  <Molecular Formula>
C15H17NO2

>  <InChIKey>
PNTUPGXTBBUIRW-UHFFFAOYSA-N

>  <Repellency>
Inactive

>  <Reference DOI>
10.3390/toxics11100837

>  <Target Organism>
Not applied

$$$$
Compound 896
Actelion Java MolfileCreator 2.0

  0  0  0  0  0  0              0 V3000
M  V30 BEGIN CTAB
M  V30 COUNTS 18 18 0 0 0
M  V30 BEGIN ATOM
M  V30 1 O 0.0 0.0 0.0 0
M  V30 2 C -1.2978 0.755 0.0 0
M  V30 3 N -1.2978 2.2534 0.0 0
M  V30 4 C -2.5956 0.0117 0.0 0
M  V30 5 C 0.0 2.9967 0.0 0
M  V30 6 C -2.5956 2.9967 0.0 0
M  V30 7 C -2.5956 -1.4865 0.0 0
M  V30 8 C -3.8934 0.7668 0.0 0
M  V30 9 C 1.2978 2.2416 0.0 0
M  V30 10 C -3.8934 2.2416 0.0 0
M  V30 11 O -3.8108 -2.3714 0.0 0
M  V30 12 C -1.3803 -2.3714 0.0 0
M  V30 13 C 2.5956 2.9849 0.0 0
M  V30 14 C -5.1912 2.9849 0.0 0
M  V30 15 C -3.3506 -3.799 0.0 0
M  V30 16 C -1.8405 -3.799 0.0 0
M  V30 17 C 3.8934 2.2298 0.0 0
M  V30 18 C -6.489 2.2298 0.0 0
M  V30 END ATOM
M  V30 BEGIN BOND
M  V30 1 2 1 2
M  V30 2 1 2 3
M  V30 3 1 2 4
M  V30 4 1 3 5
M  V30 5 1 3 6
M  V30 6 1 4 7
M  V30 7 2 4 8
M  V30 8 1 5 9
M  V30 9 1 6 10
M  V30 10 1 7 11
M  V30 11 2 7 12
M  V30 12 1 9 13
M  V30 13 1 10 14
M  V30 14 1 11 15
M  V30 15 1 12 16
M  V30 16 1 13 17
M  V30 17 1 14 18
M  V30 18 2 15 16
M  V30 END BOND
M  V30 END CTAB
M  END
>  <Molecule Name>
N,N-Di-n-butylfurylacrylamide

>  <Activity Label>
0

>  <SMILES>
CCCCN(CCCC)C(C(c1ccc[o]1)=C)=O

>  <Molecular Formula>
C15H23NO2

>  <InChIKey>
FBRPIEIHHRLSMV-UHFFFAOYSA-N

>  <Repellency>
Inactive

>  <Reference DOI>
10.3390/toxics11100837

>  <Target Organism>
Not applied

$$$$
Compound 897
Actelion Java MolfileCreator 2.0

  0  0  0  0  0  0              0 V3000
M  V30 BEGIN CTAB
M  V30 COUNTS 18 18 0 0 0
M  V30 BEGIN ATOM
M  V30 1 O 0.0 0.0 0.0 0
M  V30 2 C 0.0 -1.4995 0.0 0
M  V30 3 O -1.2988 -2.2552 0.0 0
M  V30 4 N 1.2988 -2.2552 0.0 0
M  V30 5 C -2.5976 -1.5113 0.0 0
M  V30 6 C 1.2988 -3.7547 0.0 0
M  V30 7 C 2.5976 -1.5113 0.0 0
M  V30 8 C -3.8964 -2.267 0.0 0
M  V30 9 C 0.0 -4.4986 0.0 0
M  V30 10 C 2.5976 -4.5104 0.0 0
M  V30 11 C 3.8964 -2.267 0.0 0
M  V30 12 C -5.1952 -1.5231 0.0 0
M  V30 13 C 0.0 -5.9981 0.0 0
M  V30 14 C 2.5976 -6.0099 0.0 0
M  V30 15 C 5.1952 -1.5231 0.0 0
M  V30 16 C -6.4941 -2.2788 0.0 0
M  V30 17 C 1.2988 -6.7538 0.0 0
M  V30 18 C 6.4941 -2.2788 0.0 0
M  V30 END ATOM
M  V30 BEGIN BOND
M  V30 1 2 1 2
M  V30 2 1 2 3
M  V30 3 1 2 4
M  V30 4 1 3 5
M  V30 5 1 4 6
M  V30 6 1 4 7
M  V30 7 1 5 8
M  V30 8 2 6 9
M  V30 9 1 6 10
M  V30 10 1 7 11
M  V30 11 1 8 12
M  V30 12 1 9 13
M  V30 13 2 10 14
M  V30 14 1 11 15
M  V30 15 1 12 16
M  V30 16 2 13 17
M  V30 17 1 15 18
M  V30 18 1 14 17
M  V30 END BOND
M  V30 END CTAB
M  END
>  <Molecule Name>
N-Butyl-N-phenylcarbamic acid, butyl ester

>  <Activity Label>
0

>  <SMILES>
CCCCN(C(OCCCC)=O)c1ccccc1

>  <Molecular Formula>
C15H23NO2

>  <InChIKey>
ACGUMJCTUKRBQF-UHFFFAOYSA-N

>  <Repellency>
Inactive

>  <Reference DOI>
10.3390/toxics11100837

>  <Target Organism>
Not applied

$$$$
Compound 898
Actelion Java MolfileCreator 2.0

  0  0  0  0  0  0              0 V3000
M  V30 BEGIN CTAB
M  V30 COUNTS 18 18 0 0 0
M  V30 BEGIN ATOM
M  V30 1 O 0.0 0.0 0.0 0
M  V30 2 C 0.0 -1.5016 0.0 0
M  V30 3 O -1.3006 -2.2466 0.0 0
M  V30 4 C 1.3006 -2.2466 0.0 0
M  V30 5 C -2.6013 -1.5016 0.0 0
M  V30 6 C 2.6013 -1.5016 0.0 0
M  V30 7 C -3.902 -2.2466 0.0 0
M  V30 8 N 3.902 -2.2466 0.0 0
M  V30 9 C 2.6013 0.0 0.0 0
M  V30 10 C 5.2026 -1.5016 0.0 0
M  V30 11 C 3.902 -3.7483 0.0 0
M  V30 12 C 3.902 0.7449 0.0 0
M  V30 13 C 1.3006 0.7567 0.0 0
M  V30 14 C 6.5033 -2.2466 0.0 0
M  V30 15 C 5.2026 -4.505 0.0 0
M  V30 16 C 3.902 2.2466 0.0 0
M  V30 17 C 1.3006 2.2584 0.0 0
M  V30 18 C 2.6013 2.9915 0.0 0
M  V30 END ATOM
M  V30 BEGIN BOND
M  V30 1 2 1 2
M  V30 2 1 2 3
M  V30 3 1 2 4
M  V30 4 1 3 5
M  V30 5 2 4 6 CFG=2
M  V30 6 1 5 7
M  V30 7 1 6 8
M  V30 8 1 6 9
M  V30 9 1 8 10
M  V30 10 1 8 11
M  V30 11 2 9 12
M  V30 12 1 9 13
M  V30 13 1 10 14
M  V30 14 1 11 15
M  V30 15 1 12 16
M  V30 16 2 13 17
M  V30 17 2 16 18
M  V30 18 1 17 18
M  V30 END BOND
M  V30 END CTAB
M  END
>  <Molecule Name>
beta-Diethylaminocinnamic acid, ethyl ester

>  <Activity Label>
0

>  <SMILES>
CCN(CC)C(c1ccccc1)=CC(OCC)=O

>  <Molecular Formula>
C15H21NO2

>  <InChIKey>
QSVUSCYFXKHLEV-UHFFFAOYSA-N

>  <Repellency>
Inactive

>  <Reference DOI>
10.3390/toxics11100837

>  <Target Organism>
Not applied

$$$$
Compound 899
Actelion Java MolfileCreator 2.0

  0  0  0  0  0  0              0 V3000
M  V30 BEGIN CTAB
M  V30 COUNTS 18 18 0 0 0
M  V30 BEGIN ATOM
M  V30 1 S 0.0 0.0 0.0 0
M  V30 2 O 0.745 1.3007 0.0 0
M  V30 3 O -0.745 1.3007 0.0 0
M  V30 4 N 1.3007 -0.745 0.0 0
M  V30 5 C -1.3007 -0.745 0.0 0
M  V30 6 C 2.6015 0.0 0.0 0
M  V30 7 C -2.6015 0.0118 0.0 0
M  V30 8 C -1.3007 -2.2468 0.0 0
M  V30 9 C 3.9023 -0.745 0.0 0
M  V30 10 C -3.9023 -0.7331 0.0 0
M  V30 11 C -2.6015 -2.9918 0.0 0
M  V30 12 C 5.2031 0.0 0.0 0
M  V30 13 C -3.9023 -2.235 0.0 0
M  V30 14 C 6.5039 -0.745 0.0 0
M  V30 15 C -5.2031 -2.98 0.0 0
M  V30 16 C 7.8047 0.0 0.0 0
M  V30 17 C 9.1055 -0.745 0.0 0
M  V30 18 C 10.4063 0.0 0.0 0
M  V30 END ATOM
M  V30 BEGIN BOND
M  V30 1 2 1 2
M  V30 2 2 1 3
M  V30 3 1 1 4
M  V30 4 1 1 5
M  V30 5 1 4 6
M  V30 6 2 5 7
M  V30 7 1 5 8
M  V30 8 1 6 9
M  V30 9 1 7 10
M  V30 10 2 8 11
M  V30 11 1 9 12
M  V30 12 2 10 13
M  V30 13 1 12 14
M  V30 14 1 13 15
M  V30 15 1 14 16
M  V30 16 1 16 17
M  V30 17 1 17 18
M  V30 18 1 11 13
M  V30 END BOND
M  V30 END CTAB
M  END
>  <Molecule Name>
N-Heptyl-p-toluene sulfonamide

>  <Activity Label>
0

>  <SMILES>
CCCCCCCNS(c1ccc(C)cc1)(=O)=O

>  <Molecular Formula>
C14H23NO2S

>  <InChIKey>
CNHNRAXBKBUVBJ-UHFFFAOYSA-N

>  <Repellency>
Inactive

>  <Reference DOI>
10.3390/toxics11100837

>  <Target Organism>
Not applied

$$$$
Compound 900
Actelion Java MolfileCreator 2.0

  0  0  0  0  0  0              0 V3000
M  V30 BEGIN CTAB
M  V30 COUNTS 18 18 0 0 0
M  V30 BEGIN ATOM
M  V30 1 S 0.0 0.0 0.0 0
M  V30 2 O -1.4998 0.0 0.0 0
M  V30 3 O -0.744 -1.2991 0.0 0
M  V30 4 N 0.0 1.4998 0.0 0
M  V30 5 C 1.2991 -0.744 0.0 0
M  V30 6 C 1.2991 2.2439 0.0 0
M  V30 7 C -1.2991 2.2439 0.0 0
M  V30 8 C 1.2991 -2.2439 0.0 0
M  V30 9 C 2.5982 0.0 0.0 0
M  V30 10 C 2.5982 1.488 0.0 0
M  V30 11 C -2.5982 1.488 0.0 0
M  V30 12 C 2.5982 -2.9997 0.0 0
M  V30 13 C 3.8973 -0.744 0.0 0
M  V30 14 C 3.8973 2.232 0.0 0
M  V30 15 C -3.8973 2.232 0.0 0
M  V30 16 C 3.8973 -2.2557 0.0 0
M  V30 17 C 5.1964 1.4762 0.0 0
M  V30 18 C -5.1964 1.4762 0.0 0
M  V30 END ATOM
M  V30 BEGIN BOND
M  V30 1 2 1 2
M  V30 2 2 1 3
M  V30 3 1 1 4
M  V30 4 1 1 5
M  V30 5 1 4 6
M  V30 6 1 4 7
M  V30 7 2 5 8
M  V30 8 1 5 9
M  V30 9 1 6 10
M  V30 10 1 7 11
M  V30 11 1 8 12
M  V30 12 2 9 13
M  V30 13 1 10 14
M  V30 14 1 11 15
M  V30 15 2 12 16
M  V30 16 1 14 17
M  V30 17 1 15 18
M  V30 18 1 13 16
M  V30 END BOND
M  V30 END CTAB
M  END
>  <Molecule Name>
N,N-Dibutylbenzenesulfonamide

>  <Activity Label>
0

>  <SMILES>
CCCCN(CCCC)S(c1ccccc1)(=O)=O

>  <Molecular Formula>
C14H23NO2S

>  <InChIKey>
YKXINVWHNNYQMA-UHFFFAOYSA-N

>  <Repellency>
Inactive

>  <Reference DOI>
10.3390/toxics11100837

>  <Target Organism>
Not applied

$$$$
Compound 901
Actelion Java MolfileCreator 2.0

  0  0  0  0  0  0              0 V3000
M  V30 BEGIN CTAB
M  V30 COUNTS 18 18 0 0 0
M  V30 BEGIN ATOM
M  V30 1 O 0.0 0.0 0.0 0
M  V30 2 C 0.0 1.5016 0.0 0
M  V30 3 N 1.3006 2.2465 0.0 0
M  V30 4 C -1.3006 2.2465 0.0 0
M  V30 5 C 2.6013 1.5016 0.0 0
M  V30 6 C -2.6013 1.5016 0.0 0
M  V30 7 C 3.9019 2.2465 0.0 0
M  V30 8 C -3.9019 2.2465 0.0 0
M  V30 9 C 5.2026 1.5016 0.0 0
M  V30 10 C -5.2026 1.5016 0.0 0
M  V30 11 C 6.5033 2.2465 0.0 0
M  V30 12 C -6.5033 2.2465 0.0 0
M  V30 13 C -7.8039 1.5016 0.0 0
M  V30 14 C -9.1046 2.2584 0.0 0
M  V30 15 C -7.8039 0.0 0.0 0
M  V30 16 C -10.4052 1.5134 0.0 0
M  V30 17 C -9.1046 -0.7449 0.0 0
M  V30 18 C -10.4052 0.0118 0.0 0
M  V30 END ATOM
M  V30 BEGIN BOND
M  V30 1 2 1 2
M  V30 2 1 2 3
M  V30 3 1 2 4
M  V30 4 1 3 5
M  V30 5 2 4 6 CFG=2
M  V30 6 1 5 7
M  V30 7 1 6 8
M  V30 8 1 7 9
M  V30 9 1 8 10
M  V30 10 1 9 11
M  V30 11 1 10 12
M  V30 12 1 12 13
M  V30 13 1 13 14
M  V30 14 1 13 15
M  V30 15 1 14 16
M  V30 16 1 15 17
M  V30 17 1 16 18
M  V30 18 1 17 18
M  V30 END BOND
M  V30 END CTAB
M  END
>  <Molecule Name>
N-(n-Butyl )-6-cyclohexyl-2-hexenamide

>  <Activity Label>
0

>  <SMILES>
CCCCNC(C=CCCCC1CCCCC1)=O

>  <Molecular Formula>
C16H29NO

>  <InChIKey>
NSCONRFLSQLIIU-UHFFFAOYSA-N

>  <Repellency>
Inactive

>  <Reference DOI>
10.3390/toxics11100837

>  <Target Organism>
Not applied

$$$$
Compound 902
Actelion Java MolfileCreator 2.0

  0  0  0  0  0  0              0 V3000
M  V30 BEGIN CTAB
M  V30 COUNTS 18 17 0 0 0
M  V30 BEGIN ATOM
M  V30 1 C 0.0 0.0 0.0 0
M  V30 2 C -1.3004 -0.7475 0.0 0
M  V30 3 C 1.3004 -0.7475 0.0 0
M  V30 4 C -2.6009 0.0 0.0 0
M  V30 5 C 2.6009 0.0 0.0 0
M  V30 6 C -3.9014 -0.7475 0.0 0
M  V30 7 C 3.9014 -0.7475 0.0 0
M  V30 8 C -5.2018 0.0 0.0 0
M  V30 9 C 5.2018 0.0 0.0 0
M  V30 10 C -6.5023 -0.7475 0.0 0
M  V30 11 C 6.5023 -0.7475 0.0 0
M  V30 12 C -7.8028 0.0 0.0 0
M  V30 13 C 7.8028 0.0 0.0 0
M  V30 14 C -9.1032 -0.7475 0.0 0
M  V30 15 C 9.1032 -0.7475 0.0 0
M  V30 16 C -10.4037 0.0 0.0 0
M  V30 17 C 10.4037 0.0 0.0 0
M  V30 18 C -11.7042 -0.7475 0.0 0
M  V30 END ATOM
M  V30 BEGIN BOND
M  V30 1 1 1 2
M  V30 2 1 1 3
M  V30 3 1 2 4
M  V30 4 1 3 5
M  V30 5 1 4 6
M  V30 6 1 5 7
M  V30 7 1 6 8
M  V30 8 1 7 9
M  V30 9 1 8 10
M  V30 10 1 9 11
M  V30 11 1 10 12
M  V30 12 1 11 13
M  V30 13 1 12 14
M  V30 14 1 13 15
M  V30 15 1 14 16
M  V30 16 1 15 17
M  V30 17 1 16 18
M  V30 END BOND
M  V30 END CTAB
M  END
>  <Molecule Name>
Octadecane

>  <Activity Label>
0

>  <SMILES>
CCCCCCCCCCCCCCCCCC

>  <Molecular Formula>
C18H38

>  <InChIKey>
RZJRJXONCZWCBN-UHFFFAOYSA-N

>  <Repellency>
Inactive

>  <Reference DOI>
10.3390/toxics11100837

>  <Target Organism>
Not applied

$$$$
Compound 903
Actelion Java MolfileCreator 2.0

  0  0  0  0  0  0              0 V3000
M  V30 BEGIN CTAB
M  V30 COUNTS 18 17 0 0 0
M  V30 BEGIN ATOM
M  V30 1 C 0.0 0.0 0.0 0
M  V30 2 C 1.3004 0.7475 0.0 0
M  V30 3 C -1.3004 0.7475 0.0 0
M  V30 4 C -2.6009 0.0 0.0 0
M  V30 5 C -3.9014 0.7475 0.0 0
M  V30 6 C -5.2018 0.0 0.0 0
M  V30 7 C -6.5023 0.7475 0.0 0
M  V30 8 C -7.8028 0.0 0.0 0
M  V30 9 C -9.1032 0.7475 0.0 0
M  V30 10 C -10.4037 0.0 0.0 0
M  V30 11 C -11.7042 0.7475 0.0 0
M  V30 12 C -13.0047 0.0 0.0 0
M  V30 13 C -14.3051 0.7475 0.0 0
M  V30 14 C -15.6056 0.0 0.0 0
M  V30 15 C -16.9061 0.7475 0.0 0
M  V30 16 C -18.2065 0.0 0.0 0
M  V30 17 C -19.507 0.7475 0.0 0
M  V30 18 C -20.8075 0.0 0.0 0
M  V30 END ATOM
M  V30 BEGIN BOND
M  V30 1 2 1 2
M  V30 2 1 1 3
M  V30 3 1 3 4
M  V30 4 1 4 5
M  V30 5 1 5 6
M  V30 6 1 6 7
M  V30 7 1 7 8
M  V30 8 1 8 9
M  V30 9 1 9 10
M  V30 10 1 10 11
M  V30 11 1 11 12
M  V30 12 1 12 13
M  V30 13 1 13 14
M  V30 14 1 14 15
M  V30 15 1 15 16
M  V30 16 1 16 17
M  V30 17 1 17 18
M  V30 END BOND
M  V30 END CTAB
M  END
>  <Molecule Name>
Octadecene-1

>  <Activity Label>
0

>  <SMILES>
CCCCCCCCCCCCCCCCC=C

>  <Molecular Formula>
C18H36

>  <InChIKey>
CCCMONHAUSKTEQ-UHFFFAOYSA-N

>  <Repellency>
Inactive

>  <Reference DOI>
10.3390/toxics11100837

>  <Target Organism>
Not applied

$$$$
Compound 904
Actelion Java MolfileCreator 2.0

  0  0  0  0  0  0              0 V3000
M  V30 BEGIN CTAB
M  V30 COUNTS 18 17 0 0 0
M  V30 BEGIN ATOM
M  V30 1 O 0.0 0.0 0.0 0
M  V30 2 C 0.0 1.5 0.0 0
M  V30 3 O 1.2992 2.2441 0.0 0
M  V30 4 C -1.2992 2.2441 0.0 0
M  V30 5 C 2.5985 1.4882 0.0 0
M  V30 6 C -2.5985 1.4882 0.0 0
M  V30 7 C 3.8977 2.2323 0.0 0
M  V30 8 C 2.5985 -0.0118 0.0 0
M  V30 9 C -3.8977 2.2323 0.0 0
M  V30 10 C 5.197 1.4764 0.0 0
M  V30 11 O -3.8977 3.7324 0.0 0
M  V30 12 O -5.197 1.4764 0.0 0
M  V30 13 C 6.4962 2.2205 0.0 0
M  V30 14 C -6.4962 2.2205 0.0 0
M  V30 15 C -7.7955 1.4646 0.0 0
M  V30 16 C -6.4962 3.7206 0.0 0
M  V30 17 C -9.0948 2.2087 0.0 0
M  V30 18 C -10.394 1.4528 0.0 0
M  V30 END ATOM
M  V30 BEGIN BOND
M  V30 1 2 1 2
M  V30 2 1 2 3
M  V30 3 1 2 4
M  V30 4 1 3 5
M  V30 5 1 4 6
M  V30 6 1 5 7
M  V30 7 1 5 8
M  V30 8 1 6 9
M  V30 9 1 7 10
M  V30 10 2 9 11
M  V30 11 1 9 12
M  V30 12 1 10 13
M  V30 13 1 12 14
M  V30 14 1 14 15
M  V30 15 1 14 16
M  V30 16 1 15 17
M  V30 17 1 17 18
M  V30 END BOND
M  V30 END CTAB
M  END
>  <Molecule Name>
Succinic acid, di-2-pentyl ester

>  <Activity Label>
0

>  <SMILES>
CCCC(C)OC(CCC(OC(C)CCC)=O)=O

>  <Molecular Formula>
C14H26O4

>  <InChIKey>
CEQBTPMAKXLIOL-UHFFFAOYSA-N

>  <Repellency>
Inactive

>  <Reference DOI>
10.3390/toxics11100837

>  <Target Organism>
Not applied

$$$$
Compound 905
Actelion Java MolfileCreator 2.0

  0  0  0  0  0  0              0 V3000
M  V30 BEGIN CTAB
M  V30 COUNTS 18 17 0 0 0
M  V30 BEGIN ATOM
M  V30 1 O 0.0 0.0 0.0 0
M  V30 2 C 0.0 1.5024 0.0 0
M  V30 3 O 1.3013 2.2477 0.0 0
M  V30 4 C -1.3013 2.2477 0.0 0
M  V30 5 C 2.6027 1.5024 0.0 0
M  V30 6 C -2.6027 1.5024 0.0 0
M  V30 7 C 3.904 2.2477 0.0 0
M  V30 8 C -3.904 2.2477 0.0 0
M  V30 9 C -5.2054 1.5024 0.0 0
M  V30 10 C -6.5067 2.2477 0.0 0
M  V30 11 C -7.8081 1.5024 0.0 0
M  V30 12 C -9.1094 2.2477 0.0 0
M  V30 13 C -10.4108 1.5024 0.0 0
M  V30 14 C -11.7121 2.2477 0.0 0
M  V30 15 O -11.7121 3.7502 0.0 0
M  V30 16 O -13.0135 1.5024 0.0 0
M  V30 17 C -14.3148 2.2477 0.0 0
M  V30 18 C -15.6162 1.5024 0.0 0
M  V30 END ATOM
M  V30 BEGIN BOND
M  V30 1 2 1 2
M  V30 2 1 2 3
M  V30 3 1 2 4
M  V30 4 1 3 5
M  V30 5 1 4 6
M  V30 6 1 5 7
M  V30 7 1 6 8
M  V30 8 1 8 9
M  V30 9 1 9 10
M  V30 10 1 10 11
M  V30 11 1 11 12
M  V30 12 1 12 13
M  V30 13 1 13 14
M  V30 14 2 14 15
M  V30 15 1 14 16
M  V30 16 1 16 17
M  V30 17 1 17 18
M  V30 END BOND
M  V30 END CTAB
M  END
>  <Molecule Name>
Sebacic acid, diethyl ester

>  <Activity Label>
0

>  <SMILES>
CCOC(CCCCCCCCC(OCC)=O)=O

>  <Molecular Formula>
C14H26O4

>  <InChIKey>
ONKUXPIBXRRIDU-UHFFFAOYSA-N

>  <Repellency>
Inactive

>  <Reference DOI>
10.3390/toxics11100837

>  <Target Organism>
Not applied

$$$$
Compound 906
Actelion Java MolfileCreator 2.0

  0  0  0  0  0  0              0 V3000
M  V30 BEGIN CTAB
M  V30 COUNTS 18 17 0 0 0
M  V30 BEGIN ATOM
M  V30 1 O 0.0 0.0 0.0 0
M  V30 2 C 0.0 -1.5019 0.0 0
M  V30 3 O 1.3009 -2.247 0.0 0
M  V30 4 C -1.3009 -2.247 0.0 0
M  V30 5 C 2.6018 -1.5019 0.0 0
M  V30 6 C -2.6018 -1.5019 0.0 0
M  V30 7 C 3.9027 -2.247 0.0 0
M  V30 8 C -2.6018 0.0 0.0 0
M  V30 9 C 5.2036 -1.5019 0.0 0
M  V30 10 O -1.3009 0.745 0.0 0
M  V30 11 O -3.9027 0.745 0.0 0
M  V30 12 C 6.5046 -2.247 0.0 0
M  V30 13 C -3.9027 2.247 0.0 0
M  V30 14 C 7.8055 -1.5019 0.0 0
M  V30 15 C -5.2036 2.9921 0.0 0
M  V30 16 C -5.2036 4.494 0.0 0
M  V30 17 C -6.5046 5.2391 0.0 0
M  V30 18 C -6.5046 6.7411 0.0 0
M  V30 END ATOM
M  V30 BEGIN BOND
M  V30 1 2 1 2
M  V30 2 1 2 3
M  V30 3 1 2 4
M  V30 4 1 3 5
M  V30 5 2 4 6
M  V30 6 1 5 7
M  V30 7 1 6 8
M  V30 8 1 7 9
M  V30 9 2 8 10
M  V30 10 1 8 11
M  V30 11 1 9 12
M  V30 12 1 11 13
M  V30 13 1 12 14
M  V30 14 1 13 15
M  V30 15 1 15 16
M  V30 16 1 16 17
M  V30 17 1 17 18
M  V30 END BOND
M  V30 END CTAB
M  END
>  <Molecule Name>
Maleic acid, diamyl ester

>  <Activity Label>
0

>  <SMILES>
CCCCCOC(/C=C\C(OCCCCC)=O)=O

>  <Molecular Formula>
C14H24O4

>  <InChIKey>
NFCMRHDORQSGIS-KTKRTIGZSA-N

>  <Repellency>
Inactive

>  <Reference DOI>
10.3390/toxics11100837

>  <Target Organism>
Not applied

$$$$
Compound 907
Actelion Java MolfileCreator 2.0

  0  0  0  0  0  0              0 V3000
M  V30 BEGIN CTAB
M  V30 COUNTS 18 17 0 0 0
M  V30 BEGIN ATOM
M  V30 1 O 0.0 0.0 0.0 0
M  V30 2 C 0.0 -1.4972 0.0 0
M  V30 3 O 1.2968 -2.2517 0.0 0
M  V30 4 C -1.2968 -2.2517 0.0 0
M  V30 5 C 2.5936 -1.4972 0.0 0
M  V30 6 C -2.5936 -1.4972 0.0 0
M  V30 7 C 3.8905 -2.2517 0.0 0
M  V30 8 C -3.8905 -2.2517 0.0 0
M  V30 9 C 5.1873 -1.4972 0.0 0
M  V30 10 O -3.8905 -3.749 0.0 0
M  V30 11 O -5.1873 -1.4972 0.0 0
M  V30 12 C 6.4841 -2.2517 0.0 0
M  V30 13 C -6.4841 -2.2517 0.0 0
M  V30 14 C 7.781 -1.4972 0.0 0
M  V30 15 C -7.781 -1.4972 0.0 0
M  V30 16 C -9.0778 -2.2517 0.0 0
M  V30 17 C -10.3747 -1.4972 0.0 0
M  V30 18 C -11.6715 -2.2517 0.0 0
M  V30 END ATOM
M  V30 BEGIN BOND
M  V30 1 2 1 2
M  V30 2 1 2 3
M  V30 3 1 2 4
M  V30 4 1 3 5
M  V30 5 1 4 6
M  V30 6 1 5 7
M  V30 7 1 6 8
M  V30 8 1 7 9
M  V30 9 2 8 10
M  V30 10 1 8 11
M  V30 11 1 9 12
M  V30 12 1 11 13
M  V30 13 2 12 14
M  V30 14 1 13 15
M  V30 15 1 15 16
M  V30 16 1 16 17
M  V30 17 2 17 18
M  V30 END BOND
M  V30 END CTAB
M  END
>  <Molecule Name>
Succinic acid, di-4-penten-1-yl ester

>  <Activity Label>
0

>  <SMILES>
C=CCCCOC(CCC(OCCCC=C)=O)=O

>  <Molecular Formula>
C14H22O4

>  <InChIKey>
LYTLDAKHQAIDJL-UHFFFAOYSA-N

>  <Repellency>
Inactive

>  <Reference DOI>
10.3390/toxics11100837

>  <Target Organism>
Not applied

$$$$
Compound 908
Actelion Java MolfileCreator 2.0

  0  0  0  0  0  0              0 V3000
M  V30 BEGIN CTAB
M  V30 COUNTS 18 17 0 0 0
M  V30 BEGIN ATOM
M  V30 1 O 0.0 0.0 0.0 0
M  V30 2 C 1.1302 -0.8209 0.0 0
M  V30 3 O 2.4389 -0.0594 0.0 0
M  V30 4 C 1.1302 -2.3318 0.0 0
M  V30 5 C 3.7476 -0.8209 0.0 0
M  V30 6 C -0.1784 -1.5823 0.0 0
M  V30 7 C 2.4389 -1.5823 0.0 0
M  V30 8 C 1.1302 -3.8427 0.0 0
M  V30 9 C 5.0563 -0.0594 0.0 0
M  V30 10 O -0.5353 -0.1903 0.0 0
M  V30 11 O -1.4871 -2.3318 0.0 0
M  V30 12 C 3.7476 -2.3318 0.0 0
M  V30 13 C -0.1784 -4.6042 0.0 0
M  V30 14 C -2.7958 -1.5704 0.0 0
M  V30 15 C 5.0563 -1.5823 0.0 0
M  V30 16 C -0.1784 -6.1151 0.0 0
M  V30 17 C -4.1045 -2.3318 0.0 0
M  V30 18 C 6.365 -2.3318 0.0 0
M  V30 END ATOM
M  V30 BEGIN BOND
M  V30 1 2 1 2
M  V30 2 1 2 3
M  V30 3 1 2 4
M  V30 4 1 3 5
M  V30 5 1 4 6
M  V30 6 1 4 7
M  V30 7 1 4 8
M  V30 8 1 5 9
M  V30 9 2 6 10
M  V30 10 1 6 11
M  V30 11 2 7 12 CFG=2
M  V30 12 1 8 13
M  V30 13 1 11 14
M  V30 14 1 12 15
M  V30 15 1 13 16
M  V30 16 1 14 17
M  V30 17 1 15 18
M  V30 END BOND
M  V30 END CTAB
M  END
>  <Molecule Name>
(1-Butenyl)propylmalonic acid, diethyl ester

>  <Activity Label>
0

>  <SMILES>
CCCC(C=CCC)(C(OCC)=O)C(OCC)=O

>  <Molecular Formula>
C14H24O4

>  <InChIKey>
BJZDGNBOCTWUOS-UHFFFAOYSA-N

>  <Repellency>
Inactive

>  <Reference DOI>
10.3390/toxics11100837

>  <Target Organism>
Not applied

$$$$
Compound 909
Actelion Java MolfileCreator 2.0

  0  0  0  0  0  0              0 V3000
M  V30 BEGIN CTAB
M  V30 COUNTS 18 17 0 0 0
M  V30 BEGIN ATOM
M  V30 1 O 0.0 0.0 0.0 0
M  V30 2 C 1.1298 -0.8206 0.0 0
M  V30 3 O 2.438 -0.0594 0.0 0
M  V30 4 C 1.1298 -2.331 0.0 0
M  V30 5 C 2.438 1.4509 0.0 0
M  V30 6 C -0.1783 -1.5817 0.0 0
M  V30 7 C 2.438 -1.5817 0.0 0
M  V30 8 C 1.1298 -3.8414 0.0 0
M  V30 9 C 3.7463 2.2002 0.0 0
M  V30 10 O -0.5351 -0.1902 0.0 0
M  V30 11 O -1.4866 -2.3429 0.0 0
M  V30 12 C 3.7463 -2.3429 0.0 0
M  V30 13 C -0.1783 -4.6026 0.0 0
M  V30 14 C -2.7948 -1.5817 0.0 0
M  V30 15 C 5.0545 -1.5936 0.0 0
M  V30 16 C -4.1031 -2.3429 0.0 0
M  V30 17 C 6.3628 -2.3548 0.0 0
M  V30 18 C 5.0545 -0.0832 0.0 0
M  V30 END ATOM
M  V30 BEGIN BOND
M  V30 1 2 1 2
M  V30 2 1 2 3
M  V30 3 1 2 4
M  V30 4 1 3 5
M  V30 5 1 4 6
M  V30 6 1 4 7
M  V30 7 1 4 8
M  V30 8 1 5 9
M  V30 9 2 6 10
M  V30 10 1 6 11
M  V30 11 2 7 12 CFG=2
M  V30 12 1 8 13
M  V30 13 1 11 14
M  V30 14 1 12 15
M  V30 15 1 14 16
M  V30 16 1 15 17
M  V30 17 1 15 18
M  V30 END BOND
M  V30 END CTAB
M  END
>  <Molecule Name>
(1-iso-Pentenyl)ethylmalonic acid, diethyl ester

>  <Activity Label>
0

>  <SMILES>
CCC(C=CC(C)C)(C(OCC)=O)C(OCC)=O

>  <Molecular Formula>
C14H24O4

>  <InChIKey>
YMQHGVNLJPMEST-UHFFFAOYSA-N

>  <Repellency>
Inactive

>  <Reference DOI>
10.3390/toxics11100837

>  <Target Organism>
Not applied

$$$$
Compound 910
Actelion Java MolfileCreator 2.0

  0  0  0  0  0  0              0 V3000
M  V30 BEGIN CTAB
M  V30 COUNTS 18 17 0 0 0
M  V30 BEGIN ATOM
M  V30 1 O 0.0 0.0 0.0 0
M  V30 2 C -1.1711 -0.8843 0.0 0
M  V30 3 O -2.3781 0.0478 0.0 0
M  V30 4 C -1.1711 -2.402 0.0 0
M  V30 5 C -3.8001 -0.8843 0.0 0
M  V30 6 C -2.4856 -1.6491 0.0 0
M  V30 7 C 0.1434 -1.6491 0.0 0 CFG=2
M  V30 8 C -1.1711 -3.9196 0.0 0
M  V30 9 C -5.1147 -0.1195 0.0 0
M  V30 10 O -3.8001 -2.4139 0.0 0
M  V30 11 O -2.6171 -0.4541 0.0 0
M  V30 12 C 1.4579 -2.4139 0.0 0
M  V30 13 C 0.4182 -0.3824 0.0 0
M  V30 14 C -2.4856 -4.6845 0.0 0
M  V30 15 C -3.8001 0.6333 0.0 0
M  V30 16 C 2.7724 -1.661 0.0 0
M  V30 17 C -3.8001 2.151 0.0 0
M  V30 18 C 4.0869 -2.4259 0.0 0
M  V30 END ATOM
M  V30 BEGIN BOND
M  V30 1 2 1 2
M  V30 2 1 2 3
M  V30 3 1 2 4
M  V30 4 1 3 5
M  V30 5 1 4 6
M  V30 6 1 4 7
M  V30 7 1 4 8
M  V30 8 1 5 9
M  V30 9 2 6 10
M  V30 10 1 6 11
M  V30 11 1 7 12
M  V30 12 1 7 13 CFG=1
M  V30 13 1 8 14
M  V30 14 1 11 15
M  V30 15 1 12 16
M  V30 16 1 15 17
M  V30 17 1 16 18
M  V30 END BOND
M  V30 BEGIN COLLECTION
M  V30 MDLV30/STERAC1 ATOMS=(1 7)
M  V30 END COLLECTION
M  V30 END CTAB
M  END
>  <Molecule Name>
1-Methylbutylethylmalonic acid, diethyl ester

>  <Activity Label>
0

>  <SMILES>
CCCC(C)C(CC)(C(OCC)=O)C(OCC)=O

>  <Molecular Formula>
C14H26O4

>  <InChIKey>
ZQGOJSLHZOKIBV-UHFFFAOYSA-N

>  <Repellency>
Inactive

>  <Reference DOI>
10.3390/toxics11100837

>  <Target Organism>
Not applied

$$$$
Compound 911
Actelion Java MolfileCreator 2.0

  0  0  0  0  0  0              0 V3000
M  V30 BEGIN CTAB
M  V30 COUNTS 18 17 0 0 0
M  V30 BEGIN ATOM
M  V30 1 O 0.0 0.0 0.0 0
M  V30 2 C 0.0 -1.5026 0.0 0
M  V30 3 O -1.3014 -2.248 0.0 0
M  V30 4 C 1.3014 -2.248 0.0 0
M  V30 5 C -2.6029 -1.5026 0.0 0
M  V30 6 C 2.6029 -1.5026 0.0 0
M  V30 7 C -3.9044 -2.248 0.0 0
M  V30 8 C 3.9044 -2.248 0.0 0
M  V30 9 C -5.2059 -1.5026 0.0 0
M  V30 10 C -6.5074 -2.248 0.0 0
M  V30 11 C -7.8089 -1.5026 0.0 0
M  V30 12 C -9.1104 -2.248 0.0 0
M  V30 13 C -10.4119 -1.5026 0.0 0
M  V30 14 C -11.7134 -2.248 0.0 0
M  V30 15 C -13.0149 -1.5026 0.0 0
M  V30 16 C -14.3164 -2.248 0.0 0
M  V30 17 C -15.6179 -1.5026 0.0 0
M  V30 18 C -16.9194 -2.248 0.0 0
M  V30 END ATOM
M  V30 BEGIN BOND
M  V30 1 2 1 2
M  V30 2 1 2 3
M  V30 3 1 2 4
M  V30 4 1 3 5
M  V30 5 1 4 6
M  V30 6 1 5 7
M  V30 7 1 6 8
M  V30 8 1 7 9
M  V30 9 1 9 10
M  V30 10 1 10 11
M  V30 11 1 11 12
M  V30 12 1 12 13
M  V30 13 1 13 14
M  V30 14 1 14 15
M  V30 15 1 15 16
M  V30 16 1 16 17
M  V30 17 1 17 18
M  V30 END BOND
M  V30 END CTAB
M  END
>  <Molecule Name>
n-Butyric acid, lauryl ester

>  <Activity Label>
0

>  <SMILES>
CCCCCCCCCCCCOC(CCC)=O

>  <Molecular Formula>
C16H32O2

>  <InChIKey>
JEPXJYKYHMEESP-UHFFFAOYSA-N

>  <Repellency>
Inactive

>  <Reference DOI>
10.3390/toxics11100837

>  <Target Organism>
Not applied

$$$$
Compound 912
Actelion Java MolfileCreator 2.0

  0  0  0  0  0  0              0 V3000
M  V30 BEGIN CTAB
M  V30 COUNTS 18 17 0 0 0
M  V30 BEGIN ATOM
M  V30 1 O 0.0 0.0 0.0 0
M  V30 2 C 0.0 -1.4995 0.0 0
M  V30 3 O -1.2987 -2.2551 0.0 0
M  V30 4 C 1.2987 -2.2551 0.0 0
M  V30 5 C -2.5975 -1.5113 0.0 0
M  V30 6 C 2.5975 -1.5113 0.0 0
M  V30 7 C -3.8963 -2.2669 0.0 0
M  V30 8 C 3.8963 -2.2669 0.0 0
M  V30 9 C 5.1951 -1.5231 0.0 0
M  V30 10 C 6.4939 -2.2787 0.0 0
M  V30 11 C 7.7926 -1.5349 0.0 0
M  V30 12 C 9.0914 -2.2905 0.0 0
M  V30 13 C 10.3902 -1.5467 0.0 0
M  V30 14 C 11.689 -2.3023 0.0 0
M  V30 15 C 12.9878 -1.5585 0.0 0
M  V30 16 C 14.2865 -2.3141 0.0 0
M  V30 17 C 15.5853 -1.5703 0.0 0
M  V30 18 C 16.8841 -2.3259 0.0 0
M  V30 END ATOM
M  V30 BEGIN BOND
M  V30 1 2 1 2
M  V30 2 1 2 3
M  V30 3 1 2 4
M  V30 4 1 3 5
M  V30 5 1 4 6
M  V30 6 1 5 7
M  V30 7 1 6 8
M  V30 8 1 8 9
M  V30 9 1 9 10
M  V30 10 1 10 11
M  V30 11 1 11 12
M  V30 12 1 12 13
M  V30 13 1 13 14
M  V30 14 1 14 15
M  V30 15 1 15 16
M  V30 16 1 16 17
M  V30 17 1 17 18
M  V30 END BOND
M  V30 END CTAB
M  END
>  <Molecule Name>
Myristic acid, ethyl ester

>  <Activity Label>
0

>  <SMILES>
CCCCCCCCCCCCCC(OCC)=O

>  <Molecular Formula>
C16H32O2

>  <InChIKey>
MMKRHZKQPFCLLS-UHFFFAOYSA-N

>  <Repellency>
Inactive

>  <Reference DOI>
10.3390/toxics11100837

>  <Target Organism>
Not applied

$$$$
Compound 913
Actelion Java MolfileCreator 2.0

  0  0  0  0  0  0              0 V3000
M  V30 BEGIN CTAB
M  V30 COUNTS 18 17 0 0 0
M  V30 BEGIN ATOM
M  V30 1 O 0.0 0.0 0.0 0
M  V30 2 C -1.3011 -0.7452 0.0 0
M  V30 3 O -2.6023 0.0118 0.0 0
M  V30 4 C -1.3011 -2.2475 0.0 0
M  V30 5 C 0.0 -2.9927 0.0 0
M  V30 6 C -2.6023 -2.9927 0.0 0
M  V30 7 C 1.3011 -2.2475 0.0 0
M  V30 8 C -3.9035 -2.2475 0.0 0
M  V30 9 C 2.6023 -2.9927 0.0 0
M  V30 10 C -5.2047 -2.9927 0.0 0
M  V30 11 C 3.9035 -2.2475 0.0 0
M  V30 12 C -6.5059 -2.2475 0.0 0
M  V30 13 C 5.2047 -2.9927 0.0 0
M  V30 14 C -7.8071 -2.9927 0.0 0
M  V30 15 C 6.5059 -2.2475 0.0 0
M  V30 16 C -9.1083 -2.2475 0.0 0
M  V30 17 C 7.8071 -2.9927 0.0 0
M  V30 18 C -10.4095 -2.9927 0.0 0
M  V30 END ATOM
M  V30 BEGIN BOND
M  V30 1 2 1 2
M  V30 2 1 2 3
M  V30 3 1 2 4
M  V30 4 1 4 5
M  V30 5 1 4 6
M  V30 6 1 5 7
M  V30 7 1 6 8
M  V30 8 1 7 9
M  V30 9 1 8 10
M  V30 10 1 9 11
M  V30 11 1 10 12
M  V30 12 1 11 13
M  V30 13 1 12 14
M  V30 14 1 13 15
M  V30 15 1 14 16
M  V30 16 1 15 17
M  V30 17 1 16 18
M  V30 END BOND
M  V30 END CTAB
M  END
>  <Molecule Name>
Di-n-heptylacetic acid

>  <Activity Label>
0

>  <SMILES>
CCCCCCCC(CCCCCCC)C(O)=O

>  <Molecular Formula>
C16H32O2

>  <InChIKey>
QMTHILFALDMACK-UHFFFAOYSA-N

>  <Repellency>
Inactive

>  <Reference DOI>
10.3390/toxics11100837

>  <Target Organism>
Not applied

$$$$
Compound 914
Actelion Java MolfileCreator 2.0

  0  0  0  0  0  0              0 V3000
M  V30 BEGIN CTAB
M  V30 COUNTS 18 17 0 0 0
M  V30 BEGIN ATOM
M  V30 1 O 0.0 0.0 0.0 0
M  V30 2 C 0.0 1.5 0.0 0
M  V30 3 O -1.2992 2.2441 0.0 0
M  V30 4 C 1.2992 2.2441 0.0 0
M  V30 5 C -2.5984 1.4882 0.0 0
M  V30 6 C 2.5984 1.4882 0.0 0
M  V30 7 C -3.8977 2.2323 0.0 0
M  V30 8 C 3.8977 2.2323 0.0 0
M  V30 9 C -3.8977 3.7323 0.0 0
M  V30 10 C -5.1969 1.4764 0.0 0
M  V30 11 C 5.1969 1.4764 0.0 0
M  V30 12 C 6.4962 2.2205 0.0 0
M  V30 13 C 7.7954 1.4645 0.0 0
M  V30 14 C 9.0946 2.2087 0.0 0
M  V30 15 C 10.3939 1.4527 0.0 0
M  V30 16 C 11.6931 2.1968 0.0 0
M  V30 17 C 12.9924 1.4409 0.0 0
M  V30 18 C 14.2916 2.185 0.0 0
M  V30 END ATOM
M  V30 BEGIN BOND
M  V30 1 2 1 2
M  V30 2 1 2 3
M  V30 3 1 2 4
M  V30 4 1 3 5
M  V30 5 1 4 6
M  V30 6 1 5 7
M  V30 7 1 6 8
M  V30 8 1 7 9
M  V30 9 1 7 10
M  V30 10 1 8 11
M  V30 11 1 11 12
M  V30 12 1 12 13
M  V30 13 1 13 14
M  V30 14 1 14 15
M  V30 15 1 15 16
M  V30 16 1 16 17
M  V30 17 1 17 18
M  V30 END BOND
M  V30 END CTAB
M  END
>  <Molecule Name>
Dodecanoic acid, iso-butyl ester

>  <Activity Label>
0

>  <SMILES>
CCCCCCCCCCCC(OCC(C)C)=O

>  <Molecular Formula>
C16H32O2

>  <InChIKey>
SZFOMJOELAAHAF-UHFFFAOYSA-N

>  <Repellency>
Inactive

>  <Reference DOI>
10.3390/toxics11100837

>  <Target Organism>
Not applied

$$$$
Compound 915
Actelion Java MolfileCreator 2.0

  0  0  0  0  0  0              0 V3000
M  V30 BEGIN CTAB
M  V30 COUNTS 18 17 0 0 0
M  V30 BEGIN ATOM
M  V30 1 O 0.0 0.0 0.0 0
M  V30 2 C 0.0 1.5023 0.0 0
M  V30 3 O 1.3012 2.2475 0.0 0
M  V30 4 C -1.3012 2.2475 0.0 0 CFG=2
M  V30 5 C 2.6024 1.5023 0.0 0
M  V30 6 C -2.6024 1.5023 0.0 0
M  V30 7 C -1.3012 3.7498 0.0 0
M  V30 8 C 3.9036 2.2475 0.0 0
M  V30 9 C -3.9036 2.2475 0.0 0
M  V30 10 C 0.0 4.495 0.0 0
M  V30 11 C 5.2048 1.5023 0.0 0
M  V30 12 C -5.2048 1.5023 0.0 0
M  V30 13 C 6.506 2.2475 0.0 0
M  V30 14 C 5.2048 0.0 0.0 0
M  V30 15 C -6.506 2.2475 0.0 0
M  V30 16 C -7.8072 1.5023 0.0 0
M  V30 17 C -9.1084 2.2475 0.0 0
M  V30 18 C -10.4096 1.5023 0.0 0
M  V30 END ATOM
M  V30 BEGIN BOND
M  V30 1 2 1 2
M  V30 2 1 2 3
M  V30 3 1 2 4
M  V30 4 1 3 5
M  V30 5 1 4 6 CFG=3
M  V30 6 1 4 7
M  V30 7 1 5 8
M  V30 8 1 6 9
M  V30 9 1 7 10
M  V30 10 1 8 11
M  V30 11 1 9 12
M  V30 12 1 11 13
M  V30 13 1 11 14
M  V30 14 1 12 15
M  V30 15 1 15 16
M  V30 16 1 16 17
M  V30 17 1 17 18
M  V30 END BOND
M  V30 BEGIN COLLECTION
M  V30 MDLV30/STERAC1 ATOMS=(1 4)
M  V30 END COLLECTION
M  V30 END CTAB
M  END
>  <Molecule Name>
alpha-Ethylpelargonic acid, iso-amyl ester

>  <Activity Label>
0

>  <SMILES>
CCCCCCCC(CC)C(OCCC(C)C)=O

>  <Molecular Formula>
C16H32O2

>  <InChIKey>
YJCJACLIXVJLSX-UHFFFAOYSA-N

>  <Repellency>
Inactive

>  <Reference DOI>
10.3390/toxics11100837

>  <Target Organism>
Not applied

$$$$
Compound 916
Actelion Java MolfileCreator 2.0

  0  0  0  0  0  0              0 V3000
M  V30 BEGIN CTAB
M  V30 COUNTS 18 17 0 0 0
M  V30 BEGIN ATOM
M  V30 1 O 0.0 0.0 0.0 0
M  V30 2 C 1.2994 0.7442 0.0 0
M  V30 3 O 2.5988 0.0 0.0 0
M  V30 4 C 1.2994 2.2444 0.0 0
M  V30 5 C 2.5988 -1.5002 0.0 0
M  V30 6 C 0.0 2.9886 0.0 0
M  V30 7 C 2.5988 2.9886 0.0 0 CFG=1
M  V30 8 C 3.8982 -2.2562 0.0 0
M  V30 9 O 0.0 4.4888 0.0 0
M  V30 10 O -1.2994 2.2326 0.0 0
M  V30 11 C 3.8982 2.2326 0.0 0
M  V30 12 C 2.5988 4.4888 0.0 0
M  V30 13 C -2.5988 2.9768 0.0 0
M  V30 14 O 3.8982 0.7323 0.0 0
M  V30 15 O 5.1976 2.9768 0.0 0
M  V30 16 C -3.8982 2.2208 0.0 0
M  V30 17 C 6.497 2.2208 0.0 0
M  V30 18 C 7.7964 2.965 0.0 0
M  V30 END ATOM
M  V30 BEGIN BOND
M  V30 1 2 1 2
M  V30 2 1 2 3
M  V30 3 1 2 4
M  V30 4 1 3 5
M  V30 5 1 4 6
M  V30 6 1 4 7
M  V30 7 1 5 8
M  V30 8 2 6 9
M  V30 9 1 6 10
M  V30 10 1 7 11
M  V30 11 1 7 12 CFG=3
M  V30 12 1 10 13
M  V30 13 2 11 14
M  V30 14 1 11 15
M  V30 15 1 13 16
M  V30 16 1 15 17
M  V30 17 1 17 18
M  V30 END BOND
M  V30 BEGIN COLLECTION
M  V30 MDLV30/STERAC1 ATOMS=(1 7)
M  V30 END COLLECTION
M  V30 END CTAB
M  END
>  <Molecule Name>
1,1,2-Propanetricarboxylic acid, triethyl ester

>  <Activity Label>
0

>  <SMILES>
CCOC(C(C)C(C(OCC)=O)C(OCC)=O)=O

>  <Molecular Formula>
C12H20O6

>  <InChIKey>
JYMRIBGHCMHLSA-UHFFFAOYSA-N

>  <Repellency>
Inactive

>  <Reference DOI>
10.3390/toxics11100837

>  <Target Organism>
Not applied

$$$$
Compound 917
Actelion Java MolfileCreator 2.0

  0  0  0  0  0  0              0 V3000
M  V30 BEGIN CTAB
M  V30 COUNTS 18 17 0 0 0
M  V30 BEGIN ATOM
M  V30 1 O 0.0 0.0 0.0 0
M  V30 2 C -1.2986 -0.7437 0.0 0
M  V30 3 O -2.5973 0.0118 0.0 0
M  V30 4 C -1.2986 -2.2431 0.0 0
M  V30 5 C -2.5973 1.5111 0.0 0
M  V30 6 C -2.5973 -2.9987 0.0 0
M  V30 7 C 0.0 -2.9987 0.0 0
M  V30 8 C -3.8959 2.2667 0.0 0
M  V30 9 C -3.8959 -2.2549 0.0 0
M  V30 10 C 1.2986 -2.2549 0.0 0
M  V30 11 O -3.8959 -0.7555 0.0 0
M  V30 12 O -5.1946 -3.0105 0.0 0
M  V30 13 O 1.2986 -0.7555 0.0 0
M  V30 14 O 2.5973 -3.0105 0.0 0
M  V30 15 C -6.4932 -2.2667 0.0 0
M  V30 16 C 3.8959 -2.2667 0.0 0
M  V30 17 C -7.7919 -3.0223 0.0 0
M  V30 18 C 5.1946 -3.0223 0.0 0
M  V30 END ATOM
M  V30 BEGIN BOND
M  V30 1 2 1 2
M  V30 2 1 2 3
M  V30 3 1 2 4
M  V30 4 1 3 5
M  V30 5 2 4 6 CFG=2
M  V30 6 1 4 7
M  V30 7 1 5 8
M  V30 8 1 6 9
M  V30 9 1 7 10
M  V30 10 2 9 11
M  V30 11 1 9 12
M  V30 12 2 10 13
M  V30 13 1 10 14
M  V30 14 1 12 15
M  V30 15 1 14 16
M  V30 16 1 15 17
M  V30 17 1 16 18
M  V30 END BOND
M  V30 END CTAB
M  END
>  <Molecule Name>
Aconitic acid, triethyl ester

>  <Activity Label>
0

>  <SMILES>
CCOC(CC(C(OCC)=O)=CC(OCC)=O)=O

>  <Molecular Formula>
C12H18O6

>  <InChIKey>
IDDWGDKSBYYEPL-UHFFFAOYSA-N

>  <Repellency>
Inactive

>  <Reference DOI>
10.3390/toxics11100837

>  <Target Organism>
Not applied

$$$$
Compound 918
Actelion Java MolfileCreator 2.0

  0  0  0  0  0  0              0 V3000
M  V30 BEGIN CTAB
M  V30 COUNTS 18 17 0 0 0
M  V30 BEGIN ATOM
M  V30 1 O 0.0 0.0 0.0 0
M  V30 2 C 0.0 1.5 0.0 0
M  V30 3 O 1.2992 2.2441 0.0 0
M  V30 4 C -1.2992 2.2441 0.0 0
M  V30 5 C 2.5985 1.4882 0.0 0
M  V30 6 O -1.2992 3.7442 0.0 0
M  V30 7 C -2.5985 1.4882 0.0 0
M  V30 8 C 3.8977 2.2323 0.0 0
M  V30 9 O -2.5985 -0.0118 0.0 0
M  V30 10 C -3.8977 2.2323 0.0 0
M  V30 11 C 5.197 1.4764 0.0 0
M  V30 12 O -3.8977 3.7324 0.0 0
M  V30 13 O -5.197 1.4764 0.0 0
M  V30 14 C 6.4962 2.2205 0.0 0
M  V30 15 C -6.4962 2.2205 0.0 0
M  V30 16 C -7.7955 1.4646 0.0 0
M  V30 17 C -9.0948 2.2087 0.0 0
M  V30 18 C -10.394 1.4528 0.0 0
M  V30 END ATOM
M  V30 BEGIN BOND
M  V30 1 2 1 2
M  V30 2 1 2 3
M  V30 3 1 2 4
M  V30 4 1 3 5
M  V30 5 1 4 6
M  V30 6 1 4 7
M  V30 7 1 5 8
M  V30 8 1 7 9
M  V30 9 1 7 10
M  V30 10 1 8 11
M  V30 11 2 10 12
M  V30 12 1 10 13
M  V30 13 1 11 14
M  V30 14 1 13 15
M  V30 15 1 15 16
M  V30 16 1 16 17
M  V30 17 1 17 18
M  V30 END BOND
M  V30 END CTAB
M  END
>  <Molecule Name>
Tartaric acid, dibutyl ester

>  <Activity Label>
0

>  <SMILES>
CCCCOC(C(C(C(OCCCC)=O)O)O)=O

>  <Molecular Formula>
C12H22O6

>  <InChIKey>
PCYQQSKDZQTOQG-UHFFFAOYSA-N

>  <Repellency>
Inactive

>  <Reference DOI>
10.3390/toxics11100837

>  <Target Organism>
Not applied

$$$$
Compound 919
Actelion Java MolfileCreator 2.0

  0  0  0  0  0  0              0 V3000
M  V30 BEGIN CTAB
M  V30 COUNTS 18 17 0 0 0
M  V30 BEGIN ATOM
M  V30 1 O 0.0 0.0 0.0 0
M  V30 2 C 1.3004 0.7475 0.0 0
M  V30 3 C 2.6009 0.0 0.0 0
M  V30 4 C 3.9014 0.7475 0.0 0
M  V30 5 C 5.2018 0.0 0.0 0
M  V30 6 C 6.5023 0.7475 0.0 0
M  V30 7 C 7.8028 0.0 0.0 0
M  V30 8 C 9.1032 0.7475 0.0 0
M  V30 9 C 10.4037 0.0 0.0 0
M  V30 10 C 11.7042 0.7475 0.0 0
M  V30 11 C 13.0047 0.0 0.0 0
M  V30 12 C 14.3051 0.7475 0.0 0
M  V30 13 C 15.6056 0.0 0.0 0
M  V30 14 C 16.9061 0.7475 0.0 0
M  V30 15 C 18.2065 0.0 0.0 0
M  V30 16 C 19.507 0.7475 0.0 0
M  V30 17 C 20.8075 0.0 0.0 0
M  V30 18 C 22.1079 0.7475 0.0 0
M  V30 END ATOM
M  V30 BEGIN BOND
M  V30 1 1 1 2
M  V30 2 1 2 3
M  V30 3 1 3 4
M  V30 4 1 4 5
M  V30 5 1 5 6
M  V30 6 1 6 7
M  V30 7 1 7 8
M  V30 8 1 8 9
M  V30 9 1 9 10
M  V30 10 1 10 11
M  V30 11 1 11 12
M  V30 12 1 12 13
M  V30 13 1 13 14
M  V30 14 1 14 15
M  V30 15 1 15 16
M  V30 16 1 16 17
M  V30 17 1 17 18
M  V30 END BOND
M  V30 END CTAB
M  END
>  <Molecule Name>
Heptadecanol

>  <Activity Label>
0

>  <SMILES>
CCCCCCCCCCCCCCCCCO

>  <Molecular Formula>
C17H36O

>  <InChIKey>
GOQYKNQRPGWPLP-UHFFFAOYSA-N

>  <Repellency>
Inactive

>  <Reference DOI>
10.3390/toxics11100837

>  <Target Organism>
Not applied

$$$$
Compound 920
Actelion Java MolfileCreator 2.0

  0  0  0  0  0  0              0 V3000
M  V30 BEGIN CTAB
M  V30 COUNTS 18 17 0 0 0
M  V30 BEGIN ATOM
M  V30 1 O 0.0 0.0 0.0 0
M  V30 2 C 0.0 1.5002 0.0 0
M  V30 3 O 1.2993 2.2444 0.0 0
M  V30 4 C -1.2993 2.2444 0.0 0 CFG=1
M  V30 5 C 2.5987 1.4884 0.0 0
M  V30 6 O -1.2993 3.7446 0.0 0
M  V30 7 C -2.5987 1.4884 0.0 0
M  V30 8 C 3.8981 2.2326 0.0 0
M  V30 9 C -2.5987 -0.0118 0.0 0
M  V30 10 C -3.8981 2.2326 0.0 0
M  V30 11 C 5.1975 1.4765 0.0 0
M  V30 12 C -1.2993 -0.756 0.0 0
M  V30 13 C -5.1975 1.4765 0.0 0
M  V30 14 C 6.4969 2.2207 0.0 0
M  V30 15 C 7.7963 1.4647 0.0 0
M  V30 16 C 9.0957 2.2089 0.0 0
M  V30 17 C 10.3951 1.4529 0.0 0
M  V30 18 C 11.6945 2.1971 0.0 0
M  V30 END ATOM
M  V30 BEGIN BOND
M  V30 1 2 1 2
M  V30 2 1 2 3
M  V30 3 1 2 4
M  V30 4 1 3 5
M  V30 5 1 4 6 CFG=3
M  V30 6 1 4 7
M  V30 7 1 5 8
M  V30 8 1 7 9
M  V30 9 1 7 10
M  V30 10 1 8 11
M  V30 11 1 9 12
M  V30 12 1 10 13
M  V30 13 1 11 14
M  V30 14 1 14 15
M  V30 15 1 15 16
M  V30 16 1 16 17
M  V30 17 1 17 18
M  V30 END BOND
M  V30 BEGIN COLLECTION
M  V30 MDLV30/STERAC1 ATOMS=(1 4)
M  V30 END COLLECTION
M  V30 END CTAB
M  END
>  <Molecule Name>
2-Hydroxy-3-ethylvaleric acid, octyl ester

>  <Activity Label>
0

>  <SMILES>
CCCCCCCCOC(C(C(CC)CC)O)=O

>  <Molecular Formula>
C15H30O3

>  <InChIKey>
FBDGEFPLWQNZJE-UHFFFAOYSA-N

>  <Repellency>
Inactive

>  <Reference DOI>
10.3390/toxics11100837

>  <Target Organism>
Not applied

$$$$
Compound 921
Actelion Java MolfileCreator 2.0

  0  0  0  0  0  0              0 V3000
M  V30 BEGIN CTAB
M  V30 COUNTS 18 17 0 0 0
M  V30 BEGIN ATOM
M  V30 1 O 0.0 0.0 0.0 0
M  V30 2 C 0.0 -1.5019 0.0 0
M  V30 3 O -1.3009 -2.247 0.0 0
M  V30 4 C 1.3009 -2.247 0.0 0
M  V30 5 C -2.6018 -1.5019 0.0 0
M  V30 6 C 2.6018 -1.5019 0.0 0
M  V30 7 C -3.9027 -2.247 0.0 0
M  V30 8 O 3.9027 -2.247 0.0 0
M  V30 9 C -3.9027 -3.7489 0.0 0
M  V30 10 C -5.2036 -1.5019 0.0 0
M  V30 11 C 5.2036 -1.5019 0.0 0
M  V30 12 C -2.6018 -4.494 0.0 0
M  V30 13 C -6.5045 -2.247 0.0 0
M  V30 14 C 6.5045 -2.247 0.0 0
M  V30 15 C 7.8054 -1.5019 0.0 0
M  V30 16 C 6.5045 -3.7489 0.0 0
M  V30 17 C 9.1063 -2.247 0.0 0
M  V30 18 C 7.8054 -4.5058 0.0 0
M  V30 END ATOM
M  V30 BEGIN BOND
M  V30 1 2 1 2
M  V30 2 1 2 3
M  V30 3 1 2 4
M  V30 4 1 3 5
M  V30 5 1 4 6
M  V30 6 1 5 7
M  V30 7 1 6 8
M  V30 8 1 7 9
M  V30 9 1 7 10
M  V30 10 1 8 11
M  V30 11 1 9 12
M  V30 12 1 10 13
M  V30 13 1 11 14
M  V30 14 1 14 15
M  V30 15 1 14 16
M  V30 16 1 15 17
M  V30 17 1 16 18
M  V30 END BOND
M  V30 END CTAB
M  END
>  <Molecule Name>
beta-(2-Ethylbutoxy)propionic acid, 2-ethylbutyl ester

>  <Activity Label>
0

>  <SMILES>
CCC(CC)COCCC(OCC(CC)CC)=O

>  <Molecular Formula>
C15H30O3

>  <InChIKey>
OZWSFSIOBJWQQA-UHFFFAOYSA-N

>  <Repellency>
Inactive

>  <Reference DOI>
10.3390/toxics11100837

>  <Target Organism>
Not applied

$$$$
Compound 922
Actelion Java MolfileCreator 2.0

  0  0  0  0  0  0              0 V3000
M  V30 BEGIN CTAB
M  V30 COUNTS 18 17 0 0 0
M  V30 BEGIN ATOM
M  V30 1 N 0.0 0.0 0.0 0
M  V30 2 C 0.0 -1.4996 0.0 0
M  V30 3 C 0.0 -2.9993 0.0 0
M  V30 4 C -1.2989 -3.7551 0.0 0
M  V30 5 C -2.5978 -3.0111 0.0 0
M  V30 6 C -3.8968 -3.7669 0.0 0
M  V30 7 C -5.1957 -3.0229 0.0 0
M  V30 8 C -6.4947 -3.7787 0.0 0
M  V30 9 C -7.7936 -3.0347 0.0 0
M  V30 10 C -9.0925 -3.7905 0.0 0
M  V30 11 C -10.3915 -3.0466 0.0 0
M  V30 12 C -11.6904 -3.8023 0.0 0
M  V30 13 C -12.9894 -3.0584 0.0 0
M  V30 14 C -14.2883 -3.8141 0.0 0
M  V30 15 C -15.5872 -3.0702 0.0 0
M  V30 16 C -16.8862 -3.8259 0.0 0
M  V30 17 C -18.1851 -3.082 0.0 0
M  V30 18 C -19.4841 -3.8377 0.0 0
M  V30 END ATOM
M  V30 BEGIN BOND
M  V30 1 3 1 2
M  V30 2 1 2 3
M  V30 3 1 3 4
M  V30 4 1 4 5
M  V30 5 1 5 6
M  V30 6 1 6 7
M  V30 7 1 7 8
M  V30 8 1 8 9
M  V30 9 1 9 10
M  V30 10 1 10 11
M  V30 11 1 11 12
M  V30 12 1 12 13
M  V30 13 1 13 14
M  V30 14 1 14 15
M  V30 15 1 15 16
M  V30 16 1 16 17
M  V30 17 1 17 18
M  V30 END BOND
M  V30 END CTAB
M  END
>  <Molecule Name>
Cetyl cyanide

>  <Activity Label>
0

>  <SMILES>
CCCCCCCCCCCCCCCCC#N

>  <Molecular Formula>
C17H33N

>  <InChIKey>
ZXPWFWWSCFIFII-UHFFFAOYSA-N

>  <Repellency>
Inactive

>  <Reference DOI>
10.3390/toxics11100837

>  <Target Organism>
Not applied

$$$$
Compound 923
Actelion Java MolfileCreator 2.0

  0  0  0  0  0  0              0 V3000
M  V30 BEGIN CTAB
M  V30 COUNTS 18 17 0 0 0
M  V30 BEGIN ATOM
M  V30 1 O 0.0 0.0 0.0 0
M  V30 2 C 0.0 -1.5021 0.0 0
M  V30 3 N 1.301 -2.2472 0.0 0
M  V30 4 C -1.301 -2.2472 0.0 0
M  V30 5 C 2.602 -1.5021 0.0 0
M  V30 6 C 1.301 -3.7493 0.0 0
M  V30 7 C -2.602 -1.5021 0.0 0
M  V30 8 C 3.9031 -2.2472 0.0 0
M  V30 9 C 2.602 -4.5063 0.0 0
M  V30 10 C -3.9031 -2.2472 0.0 0
M  V30 11 C -5.2041 -1.5021 0.0 0
M  V30 12 C -6.5052 -2.2472 0.0 0
M  V30 13 C -7.8062 -1.5021 0.0 0
M  V30 14 C -9.1073 -2.2472 0.0 0
M  V30 15 C -10.4083 -1.5021 0.0 0
M  V30 16 C -11.7094 -2.2472 0.0 0
M  V30 17 C -13.0104 -1.5021 0.0 0
M  V30 18 C -14.3115 -2.2472 0.0 0
M  V30 END ATOM
M  V30 BEGIN BOND
M  V30 1 2 1 2
M  V30 2 1 2 3
M  V30 3 1 2 4
M  V30 4 1 3 5
M  V30 5 1 3 6
M  V30 6 1 4 7
M  V30 7 1 5 8
M  V30 8 1 6 9
M  V30 9 1 7 10
M  V30 10 1 10 11
M  V30 11 1 11 12
M  V30 12 1 12 13
M  V30 13 1 13 14
M  V30 14 1 14 15
M  V30 15 1 15 16
M  V30 16 1 16 17
M  V30 17 1 17 18
M  V30 END BOND
M  V30 END CTAB
M  END
>  <Molecule Name>
N,N-Diethyllauramide

>  <Activity Label>
0

>  <SMILES>
CCCCCCCCCCCC(N(CC)CC)=O

>  <Molecular Formula>
C16H33NO

>  <InChIKey>
CWNSVVHTTQBGQB-UHFFFAOYSA-N

>  <Repellency>
Inactive

>  <Reference DOI>
10.3390/toxics11100837

>  <Target Organism>
Not applied

$$$$
Compound 924
Actelion Java MolfileCreator 2.0

  0  0  0  0  0  0              0 V3000
M  V30 BEGIN CTAB
M  V30 COUNTS 18 17 0 0 0
M  V30 BEGIN ATOM
M  V30 1 O 0.0 0.0 0.0 0
M  V30 2 C 0.0 -1.4995 0.0 0
M  V30 3 O -1.2988 -2.2552 0.0 0
M  V30 4 C 1.2988 -2.2552 0.0 0
M  V30 5 C -2.5976 -1.5113 0.0 0
M  V30 6 C 2.5976 -1.5113 0.0 0
M  V30 7 C -3.8964 -2.267 0.0 0
M  V30 8 C 3.8964 -2.267 0.0 0
M  V30 9 O 3.8964 -3.7665 0.0 0
M  V30 10 N 5.1952 -1.5231 0.0 0
M  V30 11 C 6.494 -2.2788 0.0 0
M  V30 12 C 5.1952 -0.0236 0.0 0
M  V30 13 C 7.7928 -1.5349 0.0 0
M  V30 14 C 3.8964 0.732 0.0 0
M  V30 15 C 9.0916 -2.2906 0.0 0
M  V30 16 C 7.7928 -0.0354 0.0 0
M  V30 17 C 2.5976 -0.0118 0.0 0
M  V30 18 C 3.8964 2.2315 0.0 0
M  V30 END ATOM
M  V30 BEGIN BOND
M  V30 1 2 1 2
M  V30 2 1 2 3
M  V30 3 1 2 4
M  V30 4 1 3 5
M  V30 5 1 4 6
M  V30 6 1 5 7
M  V30 7 1 6 8
M  V30 8 2 8 9
M  V30 9 1 8 10
M  V30 10 1 10 11
M  V30 11 1 10 12
M  V30 12 1 11 13
M  V30 13 1 12 14
M  V30 14 1 13 15
M  V30 15 1 13 16
M  V30 16 1 14 17
M  V30 17 1 14 18
M  V30 END BOND
M  V30 END CTAB
M  END
>  <Molecule Name>
N,N-Di-iso-butylsuccinamic acid, ethyl ester

>  <Activity Label>
0

>  <SMILES>
CCOC(CCC(N(CC(C)C)CC(C)C)=O)=O

>  <Molecular Formula>
C14H27NO3

>  <InChIKey>
SKXWXVVESARSFX-UHFFFAOYSA-N

>  <Repellency>
Inactive

>  <Reference DOI>
10.3390/toxics11100837

>  <Target Organism>
Not applied

$$$$
Compound 925
Actelion Java MolfileCreator 2.0

  0  0  0  0  0  0              0 V3000
M  V30 BEGIN CTAB
M  V30 COUNTS 18 19 0 0 0
M  V30 BEGIN ATOM
M  V30 1 O 0.0 0.0 0.0 0
M  V30 2 C 0.0 1.4372 0.0 0
M  V30 3 O -1.2498 2.1621 0.0 0
M  V30 4 C 1.2498 2.1621 0.0 0
M  V30 5 C -2.4996 1.4372 0.0 0
M  V30 6 C 1.3998 3.5994 0.0 0
M  V30 7 C 2.5621 1.5747 0.0 0
M  V30 8 C -2.4996 0.0 0.0 0
M  V30 9 C -3.7494 2.1621 0.0 0
M  V30 10 C 2.812 3.8994 0.0 0
M  V30 11 C 2.5996 5.1867 0.0 0
M  V30 12 C 2.862 0.1624 0.0 0
M  V30 13 C 3.5244 2.6496 0.0 0
M  V30 14 C -1.2498 -0.7248 0.0 0
M  V30 15 C -4.9992 1.4372 0.0 0
M  V30 16 C 3.9119 4.5993 0.0 0
M  V30 17 O 1.7872 -0.7998 0.0 0
M  V30 18 O 4.2368 -0.2874 0.0 0 CHG=-1
M  V30 END ATOM
M  V30 BEGIN BOND
M  V30 1 2 1 2
M  V30 2 1 2 3
M  V30 3 1 2 4
M  V30 4 1 3 5
M  V30 5 2 4 6
M  V30 6 1 4 7
M  V30 7 1 5 8
M  V30 8 1 5 9
M  V30 9 1 6 10
M  V30 10 1 6 11
M  V30 11 1 7 12
M  V30 12 1 7 13
M  V30 13 1 8 14
M  V30 14 1 9 15
M  V30 15 1 11 16
M  V30 16 2 12 17
M  V30 17 1 12 18
M  V30 18 1 10 13
M  V30 19 1 13 16
M  V30 END BOND
M  V30 END CTAB
M  END
>  <Molecule Name>
Bicyclo-(2,2,1)heptene-2,3-dicarboxylic acid, ethyl-n-propyl ester

>  <Activity Label>
0

>  <SMILES>
CCC(CC)OC(C1=C(CC2)CC2C1C([O-])=O)=O

>  <Molecular Formula>
C14H19O4

>  <InChIKey>
UWASNNOCRWWDEL-UHFFFAOYSA-M

>  <Repellency>
Inactive

>  <Reference DOI>
10.3390/toxics11100837

>  <Target Organism>
Not applied

$$$$
Compound 926
Actelion Java MolfileCreator 2.0

  0  0  0  0  0  0              0 V3000
M  V30 BEGIN CTAB
M  V30 COUNTS 18 19 0 0 0
M  V30 BEGIN ATOM
M  V30 1 O 0.0 0.0 0.0 0
M  V30 2 C 0.0 1.4369 0.0 0
M  V30 3 O -1.2494 2.1616 0.0 0
M  V30 4 C 1.2494 2.1616 0.0 0
M  V30 5 C -2.4989 1.4369 0.0 0
M  V30 6 C 1.3994 3.5985 0.0 0
M  V30 7 C 2.5614 1.5743 0.0 0
M  V30 8 C -3.7484 2.1616 0.0 0
M  V30 9 C -3.2236 0.1874 0.0 0
M  V30 10 C -1.7742 0.1874 0.0 0
M  V30 11 C 2.8113 3.8984 0.0 0
M  V30 12 C 2.5989 5.1853 0.0 0
M  V30 13 C 2.8613 0.1624 0.0 0
M  V30 14 C 3.5235 2.6489 0.0 0
M  V30 15 C -4.9979 1.4369 0.0 0
M  V30 16 C 3.9109 4.5981 0.0 0
M  V30 17 O 1.7867 -0.7996 0.0 0
M  V30 18 O 4.2357 -0.2873 0.0 0 CHG=-1
M  V30 END ATOM
M  V30 BEGIN BOND
M  V30 1 2 1 2
M  V30 2 1 2 3
M  V30 3 1 2 4
M  V30 4 1 3 5
M  V30 5 2 4 6
M  V30 6 1 4 7
M  V30 7 1 5 8
M  V30 8 1 5 9
M  V30 9 1 5 10
M  V30 10 1 6 11
M  V30 11 1 6 12
M  V30 12 1 7 13
M  V30 13 1 7 14
M  V30 14 1 8 15
M  V30 15 1 12 16
M  V30 16 2 13 17
M  V30 17 1 13 18
M  V30 18 1 11 14
M  V30 19 1 14 16
M  V30 END BOND
M  V30 END CTAB
M  END
>  <Molecule Name>
Bicyclo-(2,2,1)heptene-2,3-dicarboxylic acid, ethyl-iso-propyl ester

>  <Activity Label>
0

>  <SMILES>
CCC(C)(C)OC(C1=C(CC2)CC2C1C([O-])=O)=O

>  <Molecular Formula>
C14H19O4

>  <InChIKey>
VWBFAKMHNMLLAQ-UHFFFAOYSA-M

>  <Repellency>
Inactive

>  <Reference DOI>
10.3390/toxics11100837

>  <Target Organism>
Not applied

$$$$
Compound 927
Actelion Java MolfileCreator 2.0

  0  0  0  0  0  0              0 V3000
M  V30 BEGIN CTAB
M  V30 COUNTS 18 19 0 0 0
M  V30 BEGIN ATOM
M  V30 1 P 0.0 0.0 0.0 0
M  V30 2 O 1.2997 -0.7444 0.0 0
M  V30 3 O 0.0 -1.5006 0.0 0
M  V30 4 O -1.2997 0.7444 0.0 0
M  V30 5 O 1.2997 0.7444 0.0 0
M  V30 6 C -1.2997 -2.245 0.0 0
M  V30 7 C -1.2997 2.245 0.0 0
M  V30 8 C 2.5995 0.0 0.0 0
M  V30 9 C -2.5995 -1.4888 0.0 0
M  V30 10 C -1.2997 -3.7457 0.0 0
M  V30 11 C -2.5995 2.9895 0.0 0
M  V30 12 C 0.0 3.0013 0.0 0
M  V30 13 C -3.8993 -2.2332 0.0 0
M  V30 14 C -2.5995 -4.4901 0.0 0
M  V30 15 C -2.5995 4.4901 0.0 0
M  V30 16 C 0.0 4.502 0.0 0
M  V30 17 C -3.8993 -3.7339 0.0 0
M  V30 18 C -1.2997 5.2464 0.0 0
M  V30 END ATOM
M  V30 BEGIN BOND
M  V30 1 2 1 2
M  V30 2 1 1 3
M  V30 3 1 1 4
M  V30 4 1 1 5
M  V30 5 1 3 6
M  V30 6 1 4 7
M  V30 7 1 5 8
M  V30 8 2 6 9
M  V30 9 1 6 10
M  V30 10 2 7 11
M  V30 11 1 7 12
M  V30 12 1 9 13
M  V30 13 2 10 14
M  V30 14 1 11 15
M  V30 15 2 12 16
M  V30 16 2 13 17
M  V30 17 2 15 18
M  V30 18 1 14 17
M  V30 19 1 16 18
M  V30 END BOND
M  V30 END CTAB
M  END
>  <Molecule Name>
Phosphoric acid, methyl diphenyl ester

>  <Activity Label>
0

>  <SMILES>
COP(Oc1ccccc1)(Oc1ccccc1)=O

>  <Molecular Formula>
C13H13O4P

>  <InChIKey>
VOWPVJACXJNHBC-UHFFFAOYSA-N

>  <Repellency>
Inactive

>  <Reference DOI>
10.3390/toxics11100837

>  <Target Organism>
Not applied

$$$$
Compound 928
Actelion Java MolfileCreator 2.0

  0  0  0  0  0  0              0 V3000
M  V30 BEGIN CTAB
M  V30 COUNTS 18 19 0 0 0
M  V30 BEGIN ATOM
M  V30 1 O 0.0 0.0 0.0 0
M  V30 2 C 0.0 -1.5014 0.0 0
M  V30 3 O -1.3004 -2.2462 0.0 0
M  V30 4 C 1.3004 -2.2462 0.0 0
M  V30 5 C -2.6009 -1.5014 0.0 0
M  V30 6 C 2.6009 -1.5014 0.0 0
M  V30 7 C -3.9013 -2.2462 0.0 0
M  V30 8 C 3.9013 -2.2462 0.0 0
M  V30 9 C -5.2018 -1.4896 0.0 0
M  V30 10 C -3.9013 -3.7476 0.0 0
M  V30 11 C 3.9013 -3.7476 0.0 0
M  V30 12 C 5.2018 -1.5014 0.0 0
M  V30 13 C -6.5022 -2.2344 0.0 0
M  V30 14 C -5.2018 -4.4924 0.0 0
M  V30 15 C 5.2018 -4.4924 0.0 0
M  V30 16 C 6.5022 -2.2462 0.0 0
M  V30 17 C -6.5022 -3.7358 0.0 0
M  V30 18 C 6.5022 -3.7476 0.0 0
M  V30 END ATOM
M  V30 BEGIN BOND
M  V30 1 2 1 2
M  V30 2 1 2 3
M  V30 3 1 2 4
M  V30 4 1 3 5
M  V30 5 2 4 6 CFG=2
M  V30 6 1 5 7
M  V30 7 1 6 8
M  V30 8 2 7 9
M  V30 9 1 7 10
M  V30 10 2 8 11
M  V30 11 1 8 12
M  V30 12 1 9 13
M  V30 13 2 10 14
M  V30 14 1 11 15
M  V30 15 2 12 16
M  V30 16 2 13 17
M  V30 17 2 15 18
M  V30 18 1 14 17
M  V30 19 1 16 18
M  V30 END BOND
M  V30 END CTAB
M  END
>  <Molecule Name>
Cinnamic acid, benzyl ester

>  <Activity Label>
0

>  <SMILES>
O=C(C=Cc1ccccc1)OCc1ccccc1

>  <Molecular Formula>
C16H14O2

>  <InChIKey>
NGHOLYJTSCBCGC-UHFFFAOYSA-N

>  <Repellency>
Inactive

>  <Reference DOI>
10.3390/toxics11100837

>  <Target Organism>
Not applied

$$$$
Compound 929
Actelion Java MolfileCreator 2.0

  0  0  0  0  0  0              0 V3000
M  V30 BEGIN CTAB
M  V30 COUNTS 18 19 0 0 0
M  V30 BEGIN ATOM
M  V30 1 O 0.0 0.0 0.0 0
M  V30 2 C 0.0 -1.5014 0.0 0
M  V30 3 O -1.3004 -2.2462 0.0 0
M  V30 4 C 1.3004 -2.2462 0.0 0
M  V30 5 C -2.6009 -1.5014 0.0 0
M  V30 6 C 2.6009 -1.5014 0.0 0
M  V30 7 C -3.9013 -2.2462 0.0 0
M  V30 8 C 3.9013 -2.2462 0.0 0
M  V30 9 C 5.2018 -1.5014 0.0 0
M  V30 10 C 5.2018 0.0 0.0 0
M  V30 11 C 6.5022 -2.2462 0.0 0
M  V30 12 C 6.5022 0.7448 0.0 0
M  V30 13 C 7.8027 -1.5014 0.0 0
M  V30 14 C 7.8027 0.0 0.0 0
M  V30 15 C 6.5022 2.2462 0.0 0
M  V30 16 C 9.1032 0.7448 0.0 0
M  V30 17 C 7.8027 3.0028 0.0 0
M  V30 18 C 9.1032 2.2462 0.0 0
M  V30 END ATOM
M  V30 BEGIN BOND
M  V30 1 2 1 2
M  V30 2 1 2 3
M  V30 3 1 2 4
M  V30 4 1 3 5
M  V30 5 1 4 6
M  V30 6 1 5 7
M  V30 7 1 6 8
M  V30 8 1 8 9
M  V30 9 2 9 10
M  V30 10 1 9 11
M  V30 11 1 10 12
M  V30 12 2 11 13
M  V30 13 2 12 14
M  V30 14 1 12 15
M  V30 15 1 14 16
M  V30 16 2 15 17
M  V30 17 2 16 18
M  V30 18 1 13 14
M  V30 19 1 17 18
M  V30 END BOND
M  V30 END CTAB
M  END
>  <Molecule Name>
2-Naphthalenebutyric acid, ethyl ester

>  <Activity Label>
0

>  <SMILES>
CCOC(CCCc1cc(cccc2)c2cc1)=O

>  <Molecular Formula>
C16H18O2

>  <InChIKey>
XEASVXBNYREWCU-UHFFFAOYSA-N

>  <Repellency>
Inactive

>  <Reference DOI>
10.3390/toxics11100837

>  <Target Organism>
Not applied

$$$$
Compound 930
Actelion Java MolfileCreator 2.0

  0  0  0  0  0  0              0 V3000
M  V30 BEGIN CTAB
M  V30 COUNTS 18 19 0 0 0
M  V30 BEGIN ATOM
M  V30 1 O 0.0 0.0 0.0 0
M  V30 2 C 0.0 1.5008 0.0 0
M  V30 3 O -1.2999 2.2453 0.0 0
M  V30 4 C 1.2999 2.2453 0.0 0
M  V30 5 C -2.5998 1.5008 0.0 0
M  V30 6 C 2.5998 1.5008 0.0 0
M  V30 7 C -3.8997 2.2571 0.0 0
M  V30 8 C -2.5998 0.0 0.0 0
M  V30 9 C 3.8997 2.2453 0.0 0
M  V30 10 C -5.1996 1.5126 0.0 0
M  V30 11 C -3.8997 -0.7444 0.0 0
M  V30 12 C -5.1996 0.0118 0.0 0
M  V30 13 C -6.4995 -0.7326 0.0 0
M  V30 14 C -7.7995 0.0236 0.0 0
M  V30 15 C -6.4995 -2.2334 0.0 0
M  V30 16 C -9.0994 -0.7208 0.0 0
M  V30 17 C -7.7995 -2.9779 0.0 0
M  V30 18 C -9.0994 -2.2216 0.0 0
M  V30 END ATOM
M  V30 BEGIN BOND
M  V30 1 2 1 2
M  V30 2 1 2 3
M  V30 3 1 2 4
M  V30 4 1 3 5
M  V30 5 1 4 6
M  V30 6 1 5 7
M  V30 7 1 5 8
M  V30 8 1 6 9
M  V30 9 1 7 10
M  V30 10 1 8 11
M  V30 11 1 10 12
M  V30 12 1 12 13
M  V30 13 1 13 14
M  V30 14 1 13 15
M  V30 15 1 14 16
M  V30 16 1 15 17
M  V30 17 1 16 18
M  V30 18 1 11 12
M  V30 19 1 17 18
M  V30 END BOND
M  V30 END CTAB
M  END
>  <Molecule Name>
Butyric acid, 4-cyclohexyl-cyclohexyl ester

>  <Activity Label>
0

>  <SMILES>
CCCC(OC(CC1)CCC1C1CCCCC1)=O

>  <Molecular Formula>
C16H28O2

>  <InChIKey>
QRWJCNKHQCMBDM-UHFFFAOYSA-N

>  <Repellency>
Inactive

>  <Reference DOI>
10.3390/toxics11100837

>  <Target Organism>
Not applied

$$$$
Compound 931
Actelion Java MolfileCreator 2.0

  0  0  0  0  0  0              0 V3000
M  V30 BEGIN CTAB
M  V30 COUNTS 18 19 0 0 0
M  V30 BEGIN ATOM
M  V30 1 O 0.0 0.0 0.0 0
M  V30 2 C 0.0 -1.4995 0.0 0
M  V30 3 O -1.2988 -2.2552 0.0 0
M  V30 4 C 1.2988 -2.2552 0.0 0
M  V30 5 C -2.5976 -1.5113 0.0 0
M  V30 6 C 2.5976 -1.5113 0.0 0
M  V30 7 C -3.8965 -2.267 0.0 0
M  V30 8 C 3.8965 -2.267 0.0 0
M  V30 9 C 5.1953 -1.5231 0.0 0
M  V30 10 C 5.1953 -0.0236 0.0 0
M  V30 11 C 6.4942 -2.2788 0.0 0
M  V30 12 C 6.4942 0.7202 0.0 0
M  V30 13 C 3.8965 0.7202 0.0 0
M  V30 14 C 7.793 -1.5349 0.0 0
M  V30 15 C 7.793 -0.0354 0.0 0
M  V30 16 C 6.4942 2.2198 0.0 0
M  V30 17 C 3.8965 2.2198 0.0 0
M  V30 18 C 5.1953 2.9755 0.0 0
M  V30 END ATOM
M  V30 BEGIN BOND
M  V30 1 2 1 2
M  V30 2 1 2 3
M  V30 3 1 2 4
M  V30 4 1 3 5
M  V30 5 1 4 6
M  V30 6 1 5 7
M  V30 7 1 6 8
M  V30 8 1 8 9
M  V30 9 1 9 10
M  V30 10 2 9 11
M  V30 11 2 10 12
M  V30 12 1 10 13
M  V30 13 1 11 14
M  V30 14 1 12 15
M  V30 15 1 12 16
M  V30 16 2 13 17
M  V30 17 2 16 18
M  V30 18 2 14 15
M  V30 19 1 17 18
M  V30 END BOND
M  V30 END CTAB
M  END
>  <Molecule Name>
1-Naphthalenebutyric acid, ethyl ester

>  <Activity Label>
0

>  <SMILES>
CCOC(CCCc1cccc2c1cccc2)=O

>  <Molecular Formula>
C16H18O2

>  <InChIKey>
CLIGSMWJCIJRGQ-UHFFFAOYSA-N

>  <Repellency>
Inactive

>  <Reference DOI>
10.3390/toxics11100837

>  <Target Organism>
Not applied

$$$$
Compound 932
Actelion Java MolfileCreator 2.0

  0  0  0  0  0  0              0 V3000
M  V30 BEGIN CTAB
M  V30 COUNTS 18 19 0 0 0
M  V30 BEGIN ATOM
M  V30 1 O 0.0 0.0 0.0 0
M  V30 2 C 0.0 1.5005 0.0 0
M  V30 3 O -1.2996 2.2448 0.0 0
M  V30 4 C 1.2996 2.2448 0.0 0
M  V30 5 C -2.5992 1.5005 0.0 0 CFG=2
M  V30 6 C 2.5992 1.5005 0.0 0
M  V30 7 C 1.2996 3.7453 0.0 0
M  V30 8 C -3.8989 2.2566 0.0 0
M  V30 9 C -2.5992 0.0 0.0 0
M  V30 10 C 3.8989 2.2448 0.0 0
M  V30 11 C 0.0 4.5015 0.0 0
M  V30 12 C -5.1985 1.5123 0.0 0
M  V30 13 C -3.8989 -0.7443 0.0 0
M  V30 14 C -5.1985 0.0118 0.0 0
M  V30 15 C -6.4982 2.2684 0.0 0
M  V30 16 C -6.4982 -0.7325 0.0 0
M  V30 17 C -7.7978 1.5241 0.0 0
M  V30 18 C -7.7978 0.0236 0.0 0
M  V30 END ATOM
M  V30 BEGIN BOND
M  V30 1 2 1 2
M  V30 2 1 2 3
M  V30 3 1 2 4
M  V30 4 1 5 3 CFG=1
M  V30 5 1 4 6
M  V30 6 1 4 7
M  V30 7 1 5 8
M  V30 8 1 5 9
M  V30 9 1 6 10
M  V30 10 1 7 11
M  V30 11 1 8 12
M  V30 12 1 9 13
M  V30 13 2 12 14
M  V30 14 1 12 15
M  V30 15 1 14 16
M  V30 16 2 15 17
M  V30 17 2 16 18
M  V30 18 1 13 14
M  V30 19 1 17 18
M  V30 END BOND
M  V30 BEGIN COLLECTION
M  V30 MDLV30/STERAC1 ATOMS=(1 5)
M  V30 END COLLECTION
M  V30 END CTAB
M  END
>  <Molecule Name>
2-Ethylbutyric acid, 1,2,3,4-tetrahydro-2-naphthyl ester

>  <Activity Label>
0

>  <SMILES>
CCC(CC)C(OC(CC1)Cc2c1cccc2)=O

>  <Molecular Formula>
C16H22O2

>  <InChIKey>
DVUYPSZZGAPREM-UHFFFAOYSA-N

>  <Repellency>
Inactive

>  <Reference DOI>
10.3390/toxics11100837

>  <Target Organism>
Not applied

$$$$
Compound 933
Actelion Java MolfileCreator 2.0

  0  0  0  0  0  0              0 V3000
M  V30 BEGIN CTAB
M  V30 COUNTS 18 19 0 0 0
M  V30 BEGIN ATOM
M  V30 1 O 0.0 0.0 0.0 0
M  V30 2 C 1.3004 -0.7448 0.0 0
M  V30 3 C -1.3004 -0.7448 0.0 0
M  V30 4 C 1.3004 -2.2462 0.0 0
M  V30 5 C 2.6009 0.0 0.0 0
M  V30 6 C -2.6009 0.0 0.0 0
M  V30 7 C 2.6009 -2.991 0.0 0
M  V30 8 C 3.9013 -0.7448 0.0 0
M  V30 9 C -3.9013 -0.7448 0.0 0
M  V30 10 C -2.6009 1.5014 0.0 0
M  V30 11 C 3.9013 -2.2462 0.0 0
M  V30 12 O -5.2018 0.0 0.0 0
M  V30 13 C -6.5022 -0.7448 0.0 0
M  V30 14 C -7.8027 0.0118 0.0 0
M  V30 15 C -6.5022 -2.2462 0.0 0
M  V30 16 C -9.1032 -0.7329 0.0 0
M  V30 17 C -7.8027 -2.991 0.0 0
M  V30 18 C -9.1032 -2.2344 0.0 0
M  V30 END ATOM
M  V30 BEGIN BOND
M  V30 1 1 1 2
M  V30 2 1 1 3
M  V30 3 2 2 4
M  V30 4 1 2 5
M  V30 5 1 3 6
M  V30 6 1 4 7
M  V30 7 2 5 8
M  V30 8 1 6 9
M  V30 9 1 6 10
M  V30 10 2 7 11
M  V30 11 1 9 12
M  V30 12 1 12 13
M  V30 13 2 13 14
M  V30 14 1 13 15
M  V30 15 1 14 16
M  V30 16 2 15 17
M  V30 17 2 16 18
M  V30 18 1 8 11
M  V30 19 1 17 18
M  V30 END BOND
M  V30 END CTAB
M  END
>  <Molecule Name>
1,3-Diphenoxy-2-methylpropane

>  <Activity Label>
0

>  <SMILES>
CC(COc1ccccc1)COc1ccccc1

>  <Molecular Formula>
C16H18O2

>  <InChIKey>
HADDFUTWUUFEFX-UHFFFAOYSA-N

>  <Repellency>
Inactive

>  <Reference DOI>
10.3390/toxics11100837

>  <Target Organism>
Not applied

$$$$
Compound 934
Actelion Java MolfileCreator 2.0

  0  0  0  0  0  0              0 V3000
M  V30 BEGIN CTAB
M  V30 COUNTS 18 19 0 0 0
M  V30 BEGIN ATOM
M  V30 1 O 0.0 0.0 0.0 0
M  V30 2 C 0.0 -1.5014 0.0 0
M  V30 3 C 1.3004 -2.2462 0.0 0
M  V30 4 C -1.3004 -2.2462 0.0 0
M  V30 5 C 1.3004 -3.7476 0.0 0
M  V30 6 C 2.6009 -1.5014 0.0 0
M  V30 7 C -2.6009 -1.5014 0.0 0
M  V30 8 C 2.6009 -4.4924 0.0 0
M  V30 9 C 3.9013 -2.2462 0.0 0
M  V30 10 C -3.9013 -2.2462 0.0 0
M  V30 11 C 3.9013 -3.7476 0.0 0
M  V30 12 C -5.2018 -1.5014 0.0 0
M  V30 13 C -6.5022 -2.2462 0.0 0
M  V30 14 C -7.8027 -1.4896 0.0 0
M  V30 15 C -6.5022 -3.7476 0.0 0
M  V30 16 C -9.1032 -2.2344 0.0 0
M  V30 17 C -7.8027 -4.4924 0.0 0
M  V30 18 C -9.1032 -3.7358 0.0 0
M  V30 END ATOM
M  V30 BEGIN BOND
M  V30 1 2 1 2
M  V30 2 1 2 3
M  V30 3 1 2 4
M  V30 4 2 3 5
M  V30 5 1 3 6
M  V30 6 1 4 7
M  V30 7 1 5 8
M  V30 8 2 6 9
M  V30 9 1 7 10
M  V30 10 2 8 11
M  V30 11 1 10 12
M  V30 12 1 12 13
M  V30 13 2 13 14
M  V30 14 1 13 15
M  V30 15 1 14 16
M  V30 16 2 15 17
M  V30 17 2 16 18
M  V30 18 1 9 11
M  V30 19 1 17 18
M  V30 END BOND
M  V30 END CTAB
M  END
>  <Molecule Name>
delta-Phenylbutyl phenyl ketone

>  <Activity Label>
0

>  <SMILES>
O=C(CCCCc1ccccc1)c1ccccc1

>  <Molecular Formula>
C17H18O

>  <InChIKey>
DBLFABLNCUNXAR-UHFFFAOYSA-N

>  <Repellency>
Inactive

>  <Reference DOI>
10.3390/toxics11100837

>  <Target Organism>
Not applied

$$$$
Compound 935
Actelion Java MolfileCreator 2.0

  0  0  0  0  0  0              0 V3000
M  V30 BEGIN CTAB
M  V30 COUNTS 18 19 0 0 0
M  V30 BEGIN ATOM
M  V30 1 O 0.0 0.0 0.0 0
M  V30 2 C 0.0 1.5009 0.0 0
M  V30 3 C 1.3 2.2455 0.0 0
M  V30 4 C -1.3 2.2455 0.0 0
M  V30 5 C 2.6001 1.5009 0.0 0
M  V30 6 C 1.3 3.7465 0.0 0
M  V30 7 C -2.6001 1.5009 0.0 0
M  V30 8 C 3.9001 2.2455 0.0 0
M  V30 9 C 2.6001 0.0 0.0 0
M  V30 10 C 2.6001 4.4911 0.0 0
M  V30 11 C 0.0 4.5029 0.0 0
M  V30 12 C -3.9001 2.2573 0.0 0
M  V30 13 C -2.6001 0.0 0.0 0
M  V30 14 C 3.9001 3.7465 0.0 0
M  V30 15 C -5.2002 1.5127 0.0 0
M  V30 16 C -3.9001 -0.7445 0.0 0
M  V30 17 C 5.2002 4.4911 0.0 0
M  V30 18 C -5.2002 0.0118 0.0 0
M  V30 END ATOM
M  V30 BEGIN BOND
M  V30 1 2 1 2
M  V30 2 1 2 3
M  V30 3 1 2 4
M  V30 4 2 3 5
M  V30 5 1 3 6
M  V30 6 1 4 7
M  V30 7 1 5 8
M  V30 8 1 5 9
M  V30 9 2 6 10
M  V30 10 1 6 11
M  V30 11 2 7 12
M  V30 12 1 7 13
M  V30 13 2 8 14
M  V30 14 1 12 15
M  V30 15 2 13 16
M  V30 16 1 14 17
M  V30 17 2 15 18
M  V30 18 1 10 14
M  V30 19 1 16 18
M  V30 END BOND
M  V30 END CTAB
M  END
>  <Molecule Name>
Benzyl mesityl ketone

>  <Activity Label>
0

>  <SMILES>
Cc1cc(C)c(C(Cc2ccccc2)=O)c(C)c1

>  <Molecular Formula>
C17H18O

>  <InChIKey>
ASRAXLRGELKLDQ-UHFFFAOYSA-N

>  <Repellency>
Inactive

>  <Reference DOI>
10.3390/toxics11100837

>  <Target Organism>
Not applied

$$$$
Compound 936
Actelion Java MolfileCreator 2.0

  0  0  0  0  0  0              0 V3000
M  V30 BEGIN CTAB
M  V30 COUNTS 18 19 0 0 0
M  V30 BEGIN ATOM
M  V30 1 O 0.0 0.0 0.0 0
M  V30 2 C 1.2999 0.7444 0.0 0
M  V30 3 C -1.2999 0.7444 0.0 0
M  V30 4 C 1.2999 2.2453 0.0 0
M  V30 5 C 2.5998 0.0 0.0 0
M  V30 6 C -2.5998 0.0 0.0 0
M  V30 7 C 2.5998 3.0016 0.0 0
M  V30 8 C 0.0 2.9898 0.0 0
M  V30 9 C 3.8997 0.7563 0.0 0
M  V30 10 C -3.8997 0.7563 0.0 0
M  V30 11 C -2.5998 -1.5008 0.0 0
M  V30 12 C 3.8997 2.2571 0.0 0
M  V30 13 C 0.0 4.4906 0.0 0
M  V30 14 C -1.2999 2.2453 0.0 0
M  V30 15 C 5.1996 0.0118 0.0 0
M  V30 16 C -5.1996 0.0118 0.0 0
M  V30 17 C -3.8997 -2.2453 0.0 0
M  V30 18 C -5.1996 -1.4889 0.0 0
M  V30 END ATOM
M  V30 BEGIN BOND
M  V30 1 1 1 2
M  V30 2 1 1 3
M  V30 3 2 2 4
M  V30 4 1 2 5
M  V30 5 1 3 6
M  V30 6 1 4 7
M  V30 7 1 4 8
M  V30 8 2 5 9
M  V30 9 2 6 10
M  V30 10 1 6 11
M  V30 11 2 7 12
M  V30 12 1 8 13
M  V30 13 1 8 14
M  V30 14 1 9 15
M  V30 15 1 10 16
M  V30 16 2 11 17
M  V30 17 2 16 18
M  V30 18 1 9 12
M  V30 19 1 17 18
M  V30 END BOND
M  V30 END CTAB
M  END
>  <Molecule Name>
Benzyl thymyl ether

>  <Activity Label>
0

>  <SMILES>
CC(C)c(ccc(C)c1)c1OCc1ccccc1

>  <Molecular Formula>
C17H20O

>  <InChIKey>
CKYBMTWLNJHOLM-UHFFFAOYSA-N

>  <Repellency>
Inactive

>  <Reference DOI>
10.3390/toxics11100837

>  <Target Organism>
Not applied

$$$$
Compound 937
Actelion Java MolfileCreator 2.0

  0  0  0  0  0  0              0 V3000
M  V30 BEGIN CTAB
M  V30 COUNTS 18 19 0 0 0
M  V30 BEGIN ATOM
M  V30 1 O 0.0 0.0 0.0 0
M  V30 2 C 0.0 -1.5015 0.0 0
M  V30 3 O -1.3005 -2.2464 0.0 0
M  V30 4 C 1.3005 -2.2464 0.0 0
M  V30 5 C -2.6011 -1.5015 0.0 0
M  V30 6 C 2.6011 -1.5015 0.0 0
M  V30 7 C 1.3005 -3.748 0.0 0
M  V30 8 C -3.9017 -2.2464 0.0 0
M  V30 9 O 2.6011 0.0 0.0 0
M  V30 10 C 3.9017 -2.2583 0.0 0
M  V30 11 C 2.6011 -4.4929 0.0 0
M  V30 12 C -5.2023 -1.5015 0.0 0
M  V30 13 C 3.9017 -3.7599 0.0 0
M  V30 14 C 2.6011 -5.9945 0.0 0
M  V30 15 C -6.5029 -2.2464 0.0 0
M  V30 16 C 5.2023 -4.5047 0.0 0
M  V30 17 C 3.9017 -6.7512 0.0 0
M  V30 18 C 5.2023 -6.0063 0.0 0
M  V30 END ATOM
M  V30 BEGIN BOND
M  V30 1 2 1 2
M  V30 2 1 2 3
M  V30 3 1 2 4
M  V30 4 1 3 5
M  V30 5 1 4 6
M  V30 6 2 4 7
M  V30 7 1 5 8
M  V30 8 1 6 9
M  V30 9 2 6 10
M  V30 10 1 7 11
M  V30 11 1 8 12
M  V30 12 1 10 13
M  V30 13 1 11 14
M  V30 14 1 12 15
M  V30 15 1 13 16
M  V30 16 2 14 17
M  V30 17 2 16 18
M  V30 18 2 11 13
M  V30 19 1 17 18
M  V30 END BOND
M  V30 END CTAB
M  END
>  <Molecule Name>
3-Hydroxy-2-naphthoic acid, n-butyl ester

>  <Activity Label>
0

>  <SMILES>
CCCCOC(c1cc(cccc2)c2cc1O)=O

>  <Molecular Formula>
C15H16O3

>  <InChIKey>
XSFKKAGJBQAKTL-UHFFFAOYSA-N

>  <Repellency>
Inactive

>  <Reference DOI>
10.3390/toxics11100837

>  <Target Organism>
Not applied

$$$$
Compound 938
Actelion Java MolfileCreator 2.0

  0  0  0  0  0  0              0 V3000
M  V30 BEGIN CTAB
M  V30 COUNTS 18 19 0 0 0
M  V30 BEGIN ATOM
M  V30 1 O 0.0 0.0 0.0 0
M  V30 2 C 0.0 1.5008 0.0 0
M  V30 3 O -1.2999 2.2453 0.0 0
M  V30 4 C 1.2999 2.2453 0.0 0
M  V30 5 C -2.5998 1.489 0.0 0
M  V30 6 C 2.5998 1.489 0.0 0
M  V30 7 C 1.2999 3.7461 0.0 0
M  V30 8 C 3.8997 2.2335 0.0 0
M  V30 9 O 1.2999 5.247 0.0 0
M  V30 10 C 2.5998 4.4906 0.0 0
M  V30 11 C 0.0 4.4906 0.0 0
M  V30 12 C 3.8997 3.7343 0.0 0
M  V30 13 C 0.0 5.9915 0.0 0
M  V30 14 C 1.2999 6.736 0.0 0
M  V30 15 C -1.2999 6.736 0.0 0
M  V30 16 C 1.2999 8.2368 0.0 0
M  V30 17 C -1.2999 8.2368 0.0 0
M  V30 18 C 0.0 8.9813 0.0 0
M  V30 END ATOM
M  V30 BEGIN BOND
M  V30 1 2 1 2
M  V30 2 1 2 3
M  V30 3 1 2 4
M  V30 4 1 3 5
M  V30 5 1 4 6
M  V30 6 1 4 7
M  V30 7 2 6 8
M  V30 8 1 7 9
M  V30 9 1 7 10
M  V30 10 1 7 11
M  V30 11 1 8 12
M  V30 12 1 11 13
M  V30 13 2 13 14
M  V30 14 1 13 15
M  V30 15 1 14 16
M  V30 16 2 15 17
M  V30 17 2 16 18
M  V30 18 2 10 12
M  V30 19 1 17 18
M  V30 END BOND
M  V30 END CTAB
M  END
>  <Molecule Name>
o-Benzylsalicylic acid, methyl ester

>  <Activity Label>
0

>  <SMILES>
COC(C1C=CC=CC1(Cc1ccccc1)O)=O

>  <Molecular Formula>
C15H16O3

>  <InChIKey>
AIEYSQQLFZLWRJ-UHFFFAOYSA-N

>  <Repellency>
Inactive

>  <Reference DOI>
10.3390/toxics11100837

>  <Target Organism>
Not applied

$$$$
Compound 939
Actelion Java MolfileCreator 2.0

  0  0  0  0  0  0              0 V3000
M  V30 BEGIN CTAB
M  V30 COUNTS 18 19 0 0 0
M  V30 BEGIN ATOM
M  V30 1 O 0.0 0.0 0.0 0
M  V30 2 C 0.0 -1.5014 0.0 0
M  V30 3 O 1.3004 -2.2462 0.0 0
M  V30 4 O -1.3004 -2.2462 0.0 0
M  V30 5 C 2.6009 -1.5014 0.0 0
M  V30 6 C -2.6009 -1.5014 0.0 0
M  V30 7 C 3.9013 -2.2462 0.0 0
M  V30 8 C -3.9013 -2.2462 0.0 0
M  V30 9 C 3.9013 -3.7476 0.0 0
M  V30 10 C 5.2018 -1.5014 0.0 0
M  V30 11 C -5.2018 -1.4896 0.0 0
M  V30 12 C -3.9013 -3.7476 0.0 0
M  V30 13 C 5.2018 -4.4924 0.0 0
M  V30 14 C 6.5022 -2.2462 0.0 0
M  V30 15 C -6.5022 -2.2344 0.0 0
M  V30 16 C -5.2018 -4.4924 0.0 0
M  V30 17 C 6.5022 -3.7476 0.0 0
M  V30 18 C -6.5022 -3.7358 0.0 0
M  V30 END ATOM
M  V30 BEGIN BOND
M  V30 1 2 1 2
M  V30 2 1 2 3
M  V30 3 1 2 4
M  V30 4 1 3 5
M  V30 5 1 4 6
M  V30 6 1 5 7
M  V30 7 1 6 8
M  V30 8 2 7 9
M  V30 9 1 7 10
M  V30 10 2 8 11
M  V30 11 1 8 12
M  V30 12 1 9 13
M  V30 13 2 10 14
M  V30 14 1 11 15
M  V30 15 2 12 16
M  V30 16 2 13 17
M  V30 17 2 15 18
M  V30 18 1 14 17
M  V30 19 1 16 18
M  V30 END BOND
M  V30 END CTAB
M  END
>  <Molecule Name>
Carbonic acid, dibenzyl ester

>  <Activity Label>
0

>  <SMILES>
O=C(OCc1ccccc1)OCc1ccccc1

>  <Molecular Formula>
C15H14O3

>  <InChIKey>
PIZLBWGMERQCOC-UHFFFAOYSA-N

>  <Repellency>
Inactive

>  <Reference DOI>
10.3390/toxics11100837

>  <Target Organism>
Not applied

$$$$
Compound 940
Actelion Java MolfileCreator 2.0

  0  0  0  0  0  0              0 V3000
M  V30 BEGIN CTAB
M  V30 COUNTS 18 19 0 0 0
M  V30 BEGIN ATOM
M  V30 1 O 0.0 0.0 0.0 0
M  V30 2 C 0.0 -1.5012 0.0 0
M  V30 3 O 1.3003 -2.246 0.0 0
M  V30 4 O -1.3003 -2.246 0.0 0
M  V30 5 C 2.6006 -1.5012 0.0 0
M  V30 6 C -2.6006 -1.5012 0.0 0
M  V30 7 C 3.9009 -2.246 0.0 0
M  V30 8 C 2.6006 0.0 0.0 0
M  V30 9 C -3.9009 -2.246 0.0 0
M  V30 10 C 3.9009 -3.7473 0.0 0
M  V30 11 C 5.2013 -1.5012 0.0 0
M  V30 12 C 3.9009 0.7447 0.0 0
M  V30 13 C 2.6006 -4.492 0.0 0
M  V30 14 C 5.2013 -4.5038 0.0 0
M  V30 15 C 5.2013 0.0 0.0 0
M  V30 16 C 2.6006 -5.9933 0.0 0
M  V30 17 C 5.2013 -6.0051 0.0 0
M  V30 18 C 3.9009 -6.7498 0.0 0
M  V30 END ATOM
M  V30 BEGIN BOND
M  V30 1 2 1 2
M  V30 2 1 2 3
M  V30 3 1 2 4
M  V30 4 1 3 5
M  V30 5 1 4 6
M  V30 6 1 5 7
M  V30 7 1 5 8
M  V30 8 1 6 9
M  V30 9 1 7 10
M  V30 10 1 7 11
M  V30 11 1 8 12
M  V30 12 2 10 13
M  V30 13 1 10 14
M  V30 14 1 11 15
M  V30 15 1 13 16
M  V30 16 2 14 17
M  V30 17 2 16 18
M  V30 18 1 12 15
M  V30 19 1 17 18
M  V30 END BOND
M  V30 END CTAB
M  END
>  <Molecule Name>
Carbonic acid, 2-phenylcyclohexyl ethyl ester

>  <Activity Label>
0

>  <SMILES>
CCOC(OC(CCCC1)C1c1ccccc1)=O

>  <Molecular Formula>
C15H20O3

>  <InChIKey>
SNARIHODIPPCNY-UHFFFAOYSA-N

>  <Repellency>
Inactive

>  <Reference DOI>
10.3390/toxics11100837

>  <Target Organism>
Not applied

$$$$
Compound 941
Actelion Java MolfileCreator 2.0

  0  0  0  0  0  0              0 V3000
M  V30 BEGIN CTAB
M  V30 COUNTS 18 19 0 0 0
M  V30 BEGIN ATOM
M  V30 1 O 0.0 0.0 0.0 0
M  V30 2 C -1.3005 -0.7448 0.0 0
M  V30 3 C 0.0 1.5016 0.0 0 CFG=2
M  V30 4 C -2.6011 0.0118 0.0 0
M  V30 5 C -1.3005 -2.2464 0.0 0
M  V30 6 C -2.6011 -1.4897 0.0 0
M  V30 7 O -1.3005 2.2583 0.0 0
M  V30 8 C 1.3005 2.2464 0.0 0
M  V30 9 C -2.6011 1.5134 0.0 0
M  V30 10 C 0.0 -2.9913 0.0 0
M  V30 11 C -2.6011 -2.9913 0.0 0
M  V30 12 C 1.3005 3.748 0.0 0
M  V30 13 C 2.6011 1.5016 0.0 0
M  V30 14 C 2.6011 4.4929 0.0 0
M  V30 15 C 3.9017 2.2464 0.0 0
M  V30 16 C 3.9017 3.7362 0.0 0
M  V30 17 O 5.2023 4.4811 0.0 0
M  V30 18 C 6.5029 3.7362 0.0 0
M  V30 END ATOM
M  V30 BEGIN BOND
M  V30 1 1 1 2
M  V30 2 1 1 3
M  V30 3 1 2 4
M  V30 4 1 2 5
M  V30 5 1 2 6
M  V30 6 1 3 7
M  V30 7 1 3 8 CFG=3
M  V30 8 1 4 9
M  V30 9 1 5 10
M  V30 10 1 6 11
M  V30 11 2 8 12
M  V30 12 1 8 13
M  V30 13 1 12 14
M  V30 14 2 13 15
M  V30 15 2 14 16
M  V30 16 1 16 17
M  V30 17 1 17 18
M  V30 18 1 7 9
M  V30 19 1 15 16
M  V30 END BOND
M  V30 BEGIN COLLECTION
M  V30 MDLV30/STERAC1 ATOMS=(1 3)
M  V30 END COLLECTION
M  V30 END CTAB
M  END
>  <Molecule Name>
2-(p-methoxyphenyl)-4,4-diethyl-1,3-dioxane

>  <Activity Label>
0

>  <SMILES>
CCC1(CC)OC(c(cc2)ccc2OC)OCC1

>  <Molecular Formula>
C15H22O3

>  <InChIKey>
QLEPPJDRDRIZDJ-UHFFFAOYSA-N

>  <Repellency>
Inactive

>  <Reference DOI>
10.3390/toxics11100837

>  <Target Organism>
Not applied

$$$$
Compound 942
Actelion Java MolfileCreator 2.0

  0  0  0  0  0  0              0 V3000
M  V30 BEGIN CTAB
M  V30 COUNTS 18 19 0 0 0
M  V30 BEGIN ATOM
M  V30 1 O 0.0 0.0 0.0 0
M  V30 2 C -1.218 0.7037 0.0 0
M  V30 3 C 0.0 -1.4075 0.0 0
M  V30 4 C -1.3669 2.1113 0.0 0
M  V30 5 C -2.5038 0.1353 0.0 0
M  V30 6 O 1.218 -2.1113 0.0 0
M  V30 7 O -1.218 -2.1113 0.0 0
M  V30 8 C -2.7474 2.409 0.0 0
M  V30 9 C -2.2737 3.6542 0.0 0
M  V30 10 C -0.0541 2.6256 0.0 0
M  V30 11 C -3.4512 1.1774 0.0 0
M  V30 12 C 2.4361 -1.4075 0.0 0
M  V30 13 C -2.4361 -1.4075 0.0 0
M  V30 14 C -2.7068 4.0602 0.0 0
M  V30 15 C -4.0061 3.4918 0.0 0
M  V30 16 C -3.9925 2.8827 0.0 0
M  V30 17 C 3.6542 -2.1113 0.0 0
M  V30 18 C -3.6542 -2.1113 0.0 0
M  V30 END ATOM
M  V30 BEGIN BOND
M  V30 1 1 1 2
M  V30 2 1 1 3
M  V30 3 1 2 4
M  V30 4 1 2 5
M  V30 5 1 3 6
M  V30 6 1 3 7
M  V30 7 1 4 8
M  V30 8 1 4 9
M  V30 9 1 4 10
M  V30 10 1 5 11
M  V30 11 1 6 12
M  V30 12 1 7 13
M  V30 13 1 8 14
M  V30 14 1 8 15
M  V30 15 1 9 16
M  V30 16 1 12 17
M  V30 17 1 13 18
M  V30 18 1 8 11
M  V30 19 1 11 16
M  V30 END BOND
M  V30 END CTAB
M  END
>  <Molecule Name>
Orthoformic acid, bornyl diethyl ester

>  <Activity Label>
0

>  <SMILES>
CCOC(OCC)OC1C(C)(CC2)C(C)(C)C2C1

>  <Molecular Formula>
C15H28O3

>  <InChIKey>
XUDNWARNGUZSOU-UHFFFAOYSA-N

>  <Repellency>
Inactive

>  <Reference DOI>
10.3390/toxics11100837

>  <Target Organism>
Not applied

$$$$
Compound 943
Actelion Java MolfileCreator 2.0

  0  0  0  0  0  0              0 V3000
M  V30 BEGIN CTAB
M  V30 COUNTS 18 19 0 0 0
M  V30 BEGIN ATOM
M  V30 1 O 0.0 0.0 0.0 0
M  V30 2 C -1.1102 1.0039 0.0 0
M  V30 3 N -0.9567 2.4922 0.0 0
M  V30 4 C -2.5749 0.6968 0.0 0
M  V30 5 C -2.3268 3.1064 0.0 0
M  V30 6 C 0.3425 3.2481 0.0 0
M  V30 7 C -3.319 1.9961 0.0 0
M  V30 8 C -3.3308 -0.6023 0.0 0
M  V30 9 O -2.6339 4.571 0.0 0
M  V30 10 C 1.6418 2.4922 0.0 0
M  V30 11 C -4.8191 1.9961 0.0 0
M  V30 12 C -4.8309 -0.6023 0.0 0
M  V30 13 C 2.941 3.2481 0.0 0
M  V30 14 C -5.575 0.6968 0.0 0
M  V30 15 C 4.2403 2.4922 0.0 0
M  V30 16 C 5.5396 3.2481 0.0 0
M  V30 17 C 6.8389 2.4922 0.0 0
M  V30 18 C 8.1382 3.2481 0.0 0
M  V30 END ATOM
M  V30 BEGIN BOND
M  V30 1 2 1 2
M  V30 2 1 2 3
M  V30 3 1 2 4
M  V30 4 1 3 5
M  V30 5 1 3 6
M  V30 6 2 4 7
M  V30 7 1 4 8
M  V30 8 2 5 9
M  V30 9 1 6 10
M  V30 10 1 7 11
M  V30 11 2 8 12
M  V30 12 1 10 13
M  V30 13 2 11 14
M  V30 14 1 13 15
M  V30 15 1 15 16
M  V30 16 1 16 17
M  V30 17 1 17 18
M  V30 18 1 5 7
M  V30 19 1 12 14
M  V30 END BOND
M  V30 END CTAB
M  END
>  <Molecule Name>
N-n-Heptyl phthalimide

>  <Activity Label>
0

>  <SMILES>
CCCCCCCN(C(c1c2cccc1)=O)C2=O

>  <Molecular Formula>
C15H19NO2

>  <InChIKey>
BJFUIMIMJILKSV-UHFFFAOYSA-N

>  <Repellency>
Inactive

>  <Reference DOI>
10.3390/toxics11100837

>  <Target Organism>
Not applied

$$$$
Compound 944
Actelion Java MolfileCreator 2.0

  0  0  0  0  0  0              0 V3000
M  V30 BEGIN CTAB
M  V30 COUNTS 18 19 0 0 0
M  V30 BEGIN ATOM
M  V30 1 O 0.0 0.0 0.0 0
M  V30 2 C -1.2996 -0.7443 0.0 0
M  V30 3 O -2.5992 0.0 0.0 0
M  V30 4 C -1.2996 -2.2448 0.0 0 CFG=1
M  V30 5 C -3.8989 -0.7443 0.0 0
M  V30 6 C -2.5992 -2.9891 0.0 0
M  V30 7 C 0.0 -3.001 0.0 0
M  V30 8 C -5.1985 0.0118 0.0 0
M  V30 9 C -3.8989 -2.2448 0.0 0
M  V30 10 N -3.8989 -3.7335 0.0 0
M  V30 11 C 0.0 -4.5015 0.0 0
M  V30 12 C 1.2996 -2.2566 0.0 0
M  V30 13 C -6.4982 -0.7325 0.0 0
M  V30 14 C -5.1985 -2.9891 0.0 0
M  V30 15 C 1.2996 -5.2576 0.0 0
M  V30 16 C 2.5992 -3.0128 0.0 0
M  V30 17 C -6.4982 -2.233 0.0 0
M  V30 18 C 2.5992 -4.5133 0.0 0
M  V30 END ATOM
M  V30 BEGIN BOND
M  V30 1 2 1 2
M  V30 2 1 2 3
M  V30 3 1 2 4
M  V30 4 1 3 5
M  V30 5 1 4 6 CFG=3
M  V30 6 1 4 7
M  V30 7 1 5 8
M  V30 8 1 5 9
M  V30 9 3 6 10
M  V30 10 1 7 11
M  V30 11 1 7 12
M  V30 12 1 8 13
M  V30 13 1 9 14
M  V30 14 1 11 15
M  V30 15 1 12 16
M  V30 16 1 13 17
M  V30 17 1 15 18
M  V30 18 1 14 17
M  V30 19 1 16 18
M  V30 END BOND
M  V30 BEGIN COLLECTION
M  V30 MDLV30/STERAC1 ATOMS=(1 4)
M  V30 END COLLECTION
M  V30 END CTAB
M  END
>  <Molecule Name>
alpha-Cyclohexyl-alpha-cyano-acetic acid, cyclohexyl ester

>  <Activity Label>
0

>  <SMILES>
N#CC(C1CCCCC1)C(OC1CCCCC1)=O

>  <Molecular Formula>
C15H23NO2

>  <InChIKey>
IMEIKWZCVHISLS-UHFFFAOYSA-N

>  <Repellency>
Inactive

>  <Reference DOI>
10.3390/toxics11100837

>  <Target Organism>
Not applied

$$$$
Compound 945
Actelion Java MolfileCreator 2.0

  0  0  0  0  0  0              0 V3000
M  V30 BEGIN CTAB
M  V30 COUNTS 18 19 0 0 0
M  V30 BEGIN ATOM
M  V30 1 O 0.0 0.0 0.0 0
M  V30 2 C 0.0 -1.5012 0.0 0
M  V30 3 O -1.3003 -2.246 0.0 0
M  V30 4 N 1.3003 -2.246 0.0 0
M  V30 5 C -2.6006 -1.5012 0.0 0
M  V30 6 C 2.6006 -1.5012 0.0 0
M  V30 7 C 1.3003 -3.7473 0.0 0
M  V30 8 C -3.9009 -2.246 0.0 0
M  V30 9 C 3.9009 -2.246 0.0 0
M  V30 10 C 2.6006 0.0 0.0 0
M  V30 11 C 0.0 -4.492 0.0 0
M  V30 12 C 2.6006 -4.5038 0.0 0
M  V30 13 C 5.2013 -1.5012 0.0 0
M  V30 14 C 3.9009 0.7447 0.0 0
M  V30 15 C 0.0 -5.9933 0.0 0
M  V30 16 C 2.6006 -6.0051 0.0 0
M  V30 17 C 5.2013 0.0 0.0 0
M  V30 18 C 1.3003 -6.7498 0.0 0
M  V30 END ATOM
M  V30 BEGIN BOND
M  V30 1 2 1 2
M  V30 2 1 2 3
M  V30 3 1 2 4
M  V30 4 1 3 5
M  V30 5 1 4 6
M  V30 6 1 4 7
M  V30 7 1 5 8
M  V30 8 1 6 9
M  V30 9 1 6 10
M  V30 10 1 7 11
M  V30 11 1 7 12
M  V30 12 1 9 13
M  V30 13 1 10 14
M  V30 14 1 11 15
M  V30 15 1 12 16
M  V30 16 1 13 17
M  V30 17 1 15 18
M  V30 18 1 14 17
M  V30 19 1 16 18
M  V30 END BOND
M  V30 END CTAB
M  END
>  <Molecule Name>
N,N-Dicyclohexylcarbamic acid, ethyl ester

>  <Activity Label>
0

>  <SMILES>
CCOC(N(C1CCCCC1)C1CCCCC1)=O

>  <Molecular Formula>
C15H27NO2

>  <InChIKey>
RRIUDBQELAWJTL-UHFFFAOYSA-N

>  <Repellency>
Inactive

>  <Reference DOI>
10.3390/toxics11100837

>  <Target Organism>
Not applied

$$$$
Compound 946
Actelion Java MolfileCreator 2.0

  0  0  0  0  0  0              0 V3000
M  V30 BEGIN CTAB
M  V30 COUNTS 19 20 0 0 0
M  V30 BEGIN ATOM
M  V30 1 S 0.0 0.0 0.0 0
M  V30 2 C -1.3005 0.7448 0.0 0
M  V30 3 C 1.3005 0.7448 0.0 0
M  V30 4 C -1.3005 2.2463 0.0 0
M  V30 5 C -2.601 0.0 0.0 0
M  V30 6 C 2.601 0.0 0.0 0
M  V30 7 C 0.0 2.9911 0.0 0
M  V30 8 C -2.601 2.9911 0.0 0
M  V30 9 C -3.9015 0.7566 0.0 0
M  V30 10 C -2.601 -1.5015 0.0 0
M  V30 11 C 3.9015 0.7448 0.0 0
M  V30 12 C 0.0 4.4926 0.0 0
M  V30 13 C -2.601 4.4926 0.0 0
M  V30 14 C -5.202 0.0118 0.0 0
M  V30 15 C -3.9015 -2.2463 0.0 0
M  V30 16 C 5.202 0.0 0.0 0
M  V30 17 C -1.3005 5.2375 0.0 0
M  V30 18 C -5.202 -1.4896 0.0 0
M  V30 19 C 6.5025 0.7448 0.0 0
M  V30 END ATOM
M  V30 BEGIN BOND
M  V30 1 1 1 2
M  V30 2 1 1 3
M  V30 3 1 2 4
M  V30 4 1 2 5
M  V30 5 1 3 6
M  V30 6 2 4 7
M  V30 7 1 4 8
M  V30 8 2 5 9
M  V30 9 1 5 10
M  V30 10 1 6 11
M  V30 11 1 7 12
M  V30 12 2 8 13
M  V30 13 1 9 14
M  V30 14 2 10 15
M  V30 15 1 11 16
M  V30 16 2 12 17
M  V30 17 2 14 18
M  V30 18 1 16 19
M  V30 19 1 13 17
M  V30 20 1 15 18
M  V30 END BOND
M  V30 END CTAB
M  END
>  <Molecule Name>
Benzhydryl n-amyl thioether

>  <Activity Label>
0

>  <SMILES>
CCCCCSC(c1ccccc1)c1ccccc1

>  <Molecular Formula>
C18H22S

>  <InChIKey>
BRKHFCCCVGQXBG-UHFFFAOYSA-N

>  <Repellency>
Inactive

>  <Reference DOI>
10.3390/toxics11100837

>  <Target Organism>
Not applied

$$$$
Compound 947
Actelion Java MolfileCreator 2.0

  0  0  0  0  0  0              0 V3000
M  V30 BEGIN CTAB
M  V30 COUNTS 19 20 0 0 0
M  V30 BEGIN ATOM
M  V30 1 O 0.0 0.0 0.0 0
M  V30 2 C 0.0 1.4397 0.0 0
M  V30 3 O -1.2519 2.1659 0.0 0
M  V30 4 C 1.2519 2.1659 0.0 0
M  V30 5 C -2.5039 1.4397 0.0 0
M  V30 6 C 1.4022 3.6057 0.0 0
M  V30 7 C 2.5665 1.5774 0.0 0
M  V30 8 C -3.7559 2.1659 0.0 0
M  V30 9 C 2.8169 3.9061 0.0 0
M  V30 10 C 2.6041 5.1957 0.0 0
M  V30 11 C 2.867 0.1627 0.0 0
M  V30 12 C 3.5305 2.6542 0.0 0
M  V30 13 C -5.0079 1.4397 0.0 0
M  V30 14 C 3.9187 4.6072 0.0 0
M  V30 15 O 4.2442 -0.2879 0.0 0
M  V30 16 O 1.7903 -0.8012 0.0 0
M  V30 17 C 2.0908 -2.216 0.0 0
M  V30 18 C 1.0141 -3.18 0.0 0
M  V30 19 C 1.3145 -4.5947 0.0 0
M  V30 END ATOM
M  V30 BEGIN BOND
M  V30 1 2 1 2
M  V30 2 1 2 3
M  V30 3 1 2 4
M  V30 4 1 3 5
M  V30 5 2 4 6
M  V30 6 1 4 7
M  V30 7 1 5 8
M  V30 8 1 6 9
M  V30 9 1 6 10
M  V30 10 1 7 11
M  V30 11 1 7 12
M  V30 12 2 8 13
M  V30 13 1 10 14
M  V30 14 2 11 15
M  V30 15 1 11 16
M  V30 16 1 16 17
M  V30 17 1 17 18
M  V30 18 2 18 19
M  V30 19 1 9 12
M  V30 20 1 12 14
M  V30 END BOND
M  V30 END CTAB
M  END
>  <Molecule Name>
Bicyclo-(2,2,1)heptene-2,3-dicarboxylic acid, diallyl ester

>  <Activity Label>
0

>  <SMILES>
C=CCOC(C1C(C(OCC=C)=O)=C2CC1CC2)=O

>  <Molecular Formula>
C15H18O4

>  <InChIKey>
MDGAEYVTVFUWDP-UHFFFAOYSA-N

>  <Repellency>
Inactive

>  <Reference DOI>
10.3390/toxics11100837

>  <Target Organism>
Not applied

$$$$
Compound 948
Actelion Java MolfileCreator 2.0

  0  0  0  0  0  0              0 V3000
M  V30 BEGIN CTAB
M  V30 COUNTS 19 20 0 0 0
M  V30 BEGIN ATOM
M  V30 1 O 0.0 0.0 0.0 0
M  V30 2 C -1.3007 0.7449 0.0 0
M  V30 3 O -2.6015 0.0 0.0 0
M  V30 4 C -1.3007 2.2468 0.0 0
M  V30 5 C -2.6015 -1.5018 0.0 0
M  V30 6 C -2.6015 2.9918 0.0 0
M  V30 7 C 0.0 3.0036 0.0 0
M  V30 8 C -3.9023 -2.2468 0.0 0
M  V30 9 C -1.3007 -2.2468 0.0 0
M  V30 10 C -3.9023 2.2468 0.0 0
M  V30 11 C -2.6015 4.4936 0.0 0
M  V30 12 C 0.0 4.5054 0.0 0
M  V30 13 C -3.9023 -3.7486 0.0 0
M  V30 14 C -1.3007 -3.7486 0.0 0
M  V30 15 O -3.9023 0.7449 0.0 0
M  V30 16 O -5.2031 2.9918 0.0 0
M  V30 17 C -1.3007 5.2386 0.0 0
M  V30 18 C -2.6015 -4.4936 0.0 0
M  V30 19 C -6.5039 2.2468 0.0 0
M  V30 END ATOM
M  V30 BEGIN BOND
M  V30 1 2 1 2
M  V30 2 1 2 3
M  V30 3 1 2 4
M  V30 4 1 3 5
M  V30 5 2 4 6
M  V30 6 1 4 7
M  V30 7 1 5 8
M  V30 8 1 5 9
M  V30 9 1 6 10
M  V30 10 1 6 11
M  V30 11 2 7 12
M  V30 12 1 8 13
M  V30 13 1 9 14
M  V30 14 2 10 15
M  V30 15 1 10 16
M  V30 16 2 11 17
M  V30 17 1 13 18
M  V30 18 1 16 19
M  V30 19 1 12 17
M  V30 20 1 14 18
M  V30 END BOND
M  V30 END CTAB
M  END
>  <Molecule Name>
Phthalic acid, methyl cyclohexyl ester

>  <Activity Label>
0

>  <SMILES>
COC(c(cccc1)c1C(OC1CCCCC1)=O)=O

>  <Molecular Formula>
C15H18O4

>  <InChIKey>
PFRYPBLKZWQNCG-UHFFFAOYSA-N

>  <Repellency>
Inactive

>  <Reference DOI>
10.3390/toxics11100837

>  <Target Organism>
Not applied

$$$$
Compound 949
Actelion Java MolfileCreator 2.0

  0  0  0  0  0  0              0 V3000
M  V30 BEGIN CTAB
M  V30 COUNTS 19 20 0 0 0
M  V30 BEGIN ATOM
M  V30 1 O 0.0 0.0 0.0 0
M  V30 2 C 0.0 -1.4502 0.0 0
M  V30 3 O -1.2474 -2.1675 0.0 0
M  V30 4 C 1.2474 -2.1675 0.0 0
M  V30 5 C -2.4949 -1.4502 0.0 0
M  V30 6 C 2.5729 -1.5749 0.0 0
M  V30 7 C 1.4034 -3.6021 0.0 0
M  V30 8 C -2.4949 0.0 0.0 0
M  V30 9 C -3.7424 -2.1675 0.0 0
M  V30 10 C 3.5397 -2.6509 0.0 0
M  V30 11 C 4.5533 -1.8244 0.0 0
M  V30 12 C 0.3274 -4.5689 0.0 0
M  V30 13 C 2.8224 -3.8984 0.0 0
M  V30 14 C 4.7093 -3.259 0.0 0
M  V30 15 O -1.0447 -4.1167 0.0 0
M  V30 16 O 0.6237 -5.9879 0.0 0
M  V30 17 C -0.4522 -6.9548 0.0 0
M  V30 18 C -1.8244 -6.5025 0.0 0
M  V30 19 C -0.1559 -8.3738 0.0 0
M  V30 END ATOM
M  V30 BEGIN BOND
M  V30 1 2 1 2
M  V30 2 1 2 3
M  V30 3 1 2 4
M  V30 4 1 3 5
M  V30 5 2 4 6
M  V30 6 1 4 7
M  V30 7 1 5 8
M  V30 8 1 5 9
M  V30 9 1 6 10
M  V30 10 1 6 11
M  V30 11 1 7 12
M  V30 12 1 7 13
M  V30 13 1 11 14
M  V30 14 2 12 15
M  V30 15 1 12 16
M  V30 16 1 16 17
M  V30 17 1 17 18
M  V30 18 1 17 19
M  V30 19 1 10 13
M  V30 20 1 13 14
M  V30 END BOND
M  V30 END CTAB
M  END
>  <Molecule Name>
Bicyclo-(2,2,1)heptene-2,3-dicarboxylic acid, di-iso-propyl ester

>  <Activity Label>
0

>  <SMILES>
CC(C)OC(C1C(C(OC(C)C)=O)=C2CC1CC2)=O

>  <Molecular Formula>
C15H22O4

>  <InChIKey>
YTNCLECEUPTDCH-UHFFFAOYSA-N

>  <Repellency>
Inactive

>  <Reference DOI>
10.3390/toxics11100837

>  <Target Organism>
Not applied

$$$$
Compound 950
Actelion Java MolfileCreator 2.0

  0  0  0  0  0  0              0 V3000
M  V30 BEGIN CTAB
M  V30 COUNTS 19 20 0 0 0
M  V30 BEGIN ATOM
M  V30 1 O 0.0 0.0 0.0 0
M  V30 2 C 1.2995 -0.756 0.0 0
M  V30 3 O 2.599 -0.0118 0.0 0
M  V30 4 C 1.2995 -2.2564 0.0 0
M  V30 5 C 2.599 1.4885 0.0 0
M  V30 6 C 2.599 -3.0124 0.0 0
M  V30 7 C 0.0 -3.0006 0.0 0
M  V30 8 C 3.8985 2.2327 0.0 0
M  V30 9 C 1.2995 2.2446 0.0 0
M  V30 10 O 3.8985 -2.2682 0.0 0
M  V30 11 C 2.599 -4.5128 0.0 0
M  V30 12 C 0.0 -4.501 0.0 0
M  V30 13 C 3.8985 3.7331 0.0 0
M  V30 14 C 1.2995 3.7449 0.0 0
M  V30 15 C 5.198 -3.0124 0.0 0
M  V30 16 C 1.2995 -5.257 0.0 0
M  V30 17 C 2.599 4.4892 0.0 0
M  V30 18 O 5.198 -4.5128 0.0 0
M  V30 19 C 6.4975 -2.2682 0.0 0
M  V30 END ATOM
M  V30 BEGIN BOND
M  V30 1 2 1 2
M  V30 2 1 2 3
M  V30 3 1 2 4
M  V30 4 1 3 5
M  V30 5 2 4 6
M  V30 6 1 4 7
M  V30 7 1 5 8
M  V30 8 1 5 9
M  V30 9 1 6 10
M  V30 10 1 6 11
M  V30 11 2 7 12
M  V30 12 1 8 13
M  V30 13 1 9 14
M  V30 14 1 10 15
M  V30 15 2 11 16
M  V30 16 1 13 17
M  V30 17 2 15 18
M  V30 18 1 15 19
M  V30 19 1 12 16
M  V30 20 1 14 17
M  V30 END BOND
M  V30 END CTAB
M  END
>  <Molecule Name>
acetylsalicylic acid, cyclohexyl ester

>  <Activity Label>
0

>  <SMILES>
CC(Oc(cccc1)c1C(OC1CCCCC1)=O)=O

>  <Molecular Formula>
C15H18O4

>  <InChIKey>
FANNRDRFXKFKAY-UHFFFAOYSA-N

>  <Repellency>
Inactive

>  <Reference DOI>
10.3390/toxics11100837

>  <Target Organism>
Not applied

$$$$
Compound 951
Actelion Java MolfileCreator 2.0

  0  0  0  0  0  0              0 V3000
M  V30 BEGIN CTAB
M  V30 COUNTS 19 20 0 0 0
M  V30 BEGIN ATOM
M  V30 1 O 0.0 0.0 0.0 0
M  V30 2 C 0.0 -1.5007 0.0 0
M  V30 3 O 1.2998 -2.2452 0.0 0
M  V30 4 C -1.2998 -2.2452 0.0 0
M  V30 5 C 2.5997 -1.5007 0.0 0
M  V30 6 C -1.2998 -3.746 0.0 0
M  V30 7 C -2.5997 -1.5007 0.0 0
M  V30 8 C 3.8996 -2.2452 0.0 0
M  V30 9 C -2.5997 -4.4905 0.0 0
M  V30 10 C 0.0 -4.4905 0.0 0
M  V30 11 C -3.8996 -2.2452 0.0 0
M  V30 12 C -2.5997 -5.9912 0.0 0
M  V30 13 C 0.0 -5.9912 0.0 0
M  V30 14 C -5.1995 -1.4889 0.0 0
M  V30 15 C -3.8996 -3.746 0.0 0
M  V30 16 C -1.2998 -6.7475 0.0 0
M  V30 17 C -6.4994 -2.2334 0.0 0
M  V30 18 C -5.1995 -4.4905 0.0 0
M  V30 19 C -6.4994 -3.7342 0.0 0
M  V30 END ATOM
M  V30 BEGIN BOND
M  V30 1 2 1 2
M  V30 2 1 2 3
M  V30 3 1 2 4
M  V30 4 1 3 5
M  V30 5 1 4 6
M  V30 6 2 4 7 CFG=2
M  V30 7 1 5 8
M  V30 8 2 6 9
M  V30 9 1 6 10
M  V30 10 1 7 11
M  V30 11 1 9 12
M  V30 12 2 10 13
M  V30 13 2 11 14
M  V30 14 1 11 15
M  V30 15 2 12 16
M  V30 16 1 14 17
M  V30 17 2 15 18
M  V30 18 2 17 19
M  V30 19 1 13 16
M  V30 20 1 18 19
M  V30 END BOND
M  V30 END CTAB
M  END
>  <Molecule Name>
alpha-Phenylcinnamic acid, ethyl ester

>  <Activity Label>
0

>  <SMILES>
CCOC(C(c1ccccc1)=Cc1ccccc1)=O

>  <Molecular Formula>
C17H16O2

>  <InChIKey>
LHBZQXYESNTQML-UHFFFAOYSA-N

>  <Repellency>
Inactive

>  <Reference DOI>
10.3390/toxics11100837

>  <Target Organism>
Not applied

$$$$
Compound 952
Actelion Java MolfileCreator 2.0

  0  0  0  0  0  0              0 V3000
M  V30 BEGIN CTAB
M  V30 COUNTS 19 20 0 0 0
M  V30 BEGIN ATOM
M  V30 1 O 0.0 0.0 0.0 0
M  V30 2 C 1.3 0.7445 0.0 0
M  V30 3 C -1.3 0.7445 0.0 0
M  V30 4 C 2.6 0.0 0.0 0
M  V30 5 C 1.3 2.2454 0.0 0
M  V30 6 C -2.6 0.0 0.0 0
M  V30 7 O 2.6 -1.5009 0.0 0
M  V30 8 C 3.9 0.7563 0.0 0
M  V30 9 C 2.6 3.0018 0.0 0
M  V30 10 C -3.9 0.7563 0.0 0
M  V30 11 C -2.6 -1.5009 0.0 0
M  V30 12 C 3.9 -2.2454 0.0 0
M  V30 13 C 3.9 2.2572 0.0 0
M  V30 14 C -5.2 0.0118 0.0 0
M  V30 15 C -3.9 -2.2454 0.0 0
M  V30 16 C 5.2 3.0018 0.0 0
M  V30 17 C -5.2 -1.489 0.0 0
M  V30 18 C 6.5 2.2572 0.0 0
M  V30 19 C 7.8 3.0018 0.0 0
M  V30 END ATOM
M  V30 BEGIN BOND
M  V30 1 1 1 2
M  V30 2 1 1 3
M  V30 3 2 2 4
M  V30 4 1 2 5
M  V30 5 1 3 6
M  V30 6 1 4 7
M  V30 7 1 4 8
M  V30 8 2 5 9
M  V30 9 2 6 10
M  V30 10 1 6 11
M  V30 11 1 7 12
M  V30 12 2 8 13
M  V30 13 1 10 14
M  V30 14 2 11 15
M  V30 15 1 13 16
M  V30 16 2 14 17
M  V30 17 1 16 18
M  V30 18 2 18 19
M  V30 19 1 9 13
M  V30 20 1 15 17
M  V30 END BOND
M  V30 END CTAB
M  END
>  <Molecule Name>
Benzyl eugenyl ether

>  <Activity Label>
0

>  <SMILES>
COc(cc(CC=C)cc1)c1OCc1ccccc1

>  <Molecular Formula>
C17H18O2

>  <InChIKey>
NSCLRALYUOMPCL-UHFFFAOYSA-N

>  <Repellency>
Inactive

>  <Reference DOI>
10.3390/toxics11100837

>  <Target Organism>
Not applied

$$$$
Compound 953
Actelion Java MolfileCreator 2.0

  0  0  0  0  0  0              0 V3000
M  V30 BEGIN CTAB
M  V30 COUNTS 19 20 0 0 0
M  V30 BEGIN ATOM
M  V30 1 O 0.0 0.0 0.0 0
M  V30 2 C 1.3006 0.7449 0.0 0
M  V30 3 C -1.3006 0.7449 0.0 0
M  V30 4 C 2.6012 0.0 0.0 0
M  V30 5 C -2.6012 0.0 0.0 0
M  V30 6 C 3.9019 0.7449 0.0 0
M  V30 7 C -3.9019 0.7449 0.0 0
M  V30 8 C 5.2025 0.0 0.0 0
M  V30 9 C -5.2025 0.0 0.0 0
M  V30 10 C 5.2025 -1.5016 0.0 0
M  V30 11 C 6.5031 0.7449 0.0 0
M  V30 12 C -6.5031 0.7567 0.0 0
M  V30 13 C -5.2025 -1.5016 0.0 0
M  V30 14 C 6.5031 -2.2465 0.0 0
M  V30 15 C 7.8038 0.0 0.0 0
M  V30 16 C -7.8038 0.0118 0.0 0
M  V30 17 C -6.5031 -2.2465 0.0 0
M  V30 18 C 7.8038 -1.5016 0.0 0
M  V30 19 C -7.8038 -1.4898 0.0 0
M  V30 END ATOM
M  V30 BEGIN BOND
M  V30 1 1 1 2
M  V30 2 1 1 3
M  V30 3 1 2 4
M  V30 4 1 3 5
M  V30 5 1 4 6
M  V30 6 1 5 7
M  V30 7 1 6 8
M  V30 8 1 7 9
M  V30 9 2 8 10
M  V30 10 1 8 11
M  V30 11 2 9 12
M  V30 12 1 9 13
M  V30 13 1 10 14
M  V30 14 2 11 15
M  V30 15 1 12 16
M  V30 16 2 13 17
M  V30 17 2 14 18
M  V30 18 2 16 19
M  V30 19 1 15 18
M  V30 20 1 17 19
M  V30 END BOND
M  V30 END CTAB
M  END
>  <Molecule Name>
Di-(3-phenylpropyl) ether

>  <Activity Label>
0

>  <SMILES>
C(Cc1ccccc1)COCCCc1ccccc1

>  <Molecular Formula>
C18H22O

>  <InChIKey>
CUVMKDPTHKMHBE-UHFFFAOYSA-N

>  <Repellency>
Inactive

>  <Reference DOI>
10.3390/toxics11100837

>  <Target Organism>
Not applied

$$$$
Compound 954
Actelion Java MolfileCreator 2.0

  0  0  0  0  0  0              0 V3000
M  V30 BEGIN CTAB
M  V30 COUNTS 19 20 0 0 0
M  V30 BEGIN ATOM
M  V30 1 O 0.0 0.0 0.0 0
M  V30 2 C 1.3006 0.7449 0.0 0
M  V30 3 C -1.3006 0.7449 0.0 0
M  V30 4 C 2.6012 0.0 0.0 0
M  V30 5 C -2.6012 0.0 0.0 0
M  V30 6 C 3.9019 0.7449 0.0 0
M  V30 7 C -3.9019 0.7449 0.0 0
M  V30 8 C 5.2025 0.0 0.0 0
M  V30 9 C -5.2025 0.0 0.0 0
M  V30 10 C 5.2025 -1.5016 0.0 0
M  V30 11 C 6.5031 0.7449 0.0 0
M  V30 12 C -6.5031 0.7567 0.0 0
M  V30 13 C -5.2025 -1.5016 0.0 0
M  V30 14 C 6.5031 -2.2465 0.0 0
M  V30 15 C 7.8038 0.0 0.0 0
M  V30 16 C -7.8038 0.0118 0.0 0
M  V30 17 C -6.5031 -2.2465 0.0 0
M  V30 18 C 7.8038 -1.5016 0.0 0
M  V30 19 C -7.8038 -1.4898 0.0 0
M  V30 END ATOM
M  V30 BEGIN BOND
M  V30 1 1 1 2
M  V30 2 1 1 3
M  V30 3 1 2 4
M  V30 4 1 3 5
M  V30 5 1 4 6
M  V30 6 1 5 7
M  V30 7 1 6 8
M  V30 8 1 7 9
M  V30 9 1 8 10
M  V30 10 1 8 11
M  V30 11 1 9 12
M  V30 12 1 9 13
M  V30 13 1 10 14
M  V30 14 1 11 15
M  V30 15 1 12 16
M  V30 16 1 13 17
M  V30 17 1 14 18
M  V30 18 1 16 19
M  V30 19 1 15 18
M  V30 20 1 17 19
M  V30 END BOND
M  V30 END CTAB
M  END
>  <Molecule Name>
Di-(3-cyclohexylpropyl ) ether

>  <Activity Label>
0

>  <SMILES>
C(CC1CCCCC1)COCCCC1CCCCC1

>  <Molecular Formula>
C18H34O

>  <InChIKey>
HLWHLCDAIRDUFL-UHFFFAOYSA-N

>  <Repellency>
Inactive

>  <Reference DOI>
10.3390/toxics11100837

>  <Target Organism>
Not applied

$$$$
Compound 955
Actelion Java MolfileCreator 2.0

  0  0  0  0  0  0              0 V3000
M  V30 BEGIN CTAB
M  V30 COUNTS 19 20 0 0 0
M  V30 BEGIN ATOM
M  V30 1 O 0.0 0.0 0.0 0
M  V30 2 C -1.3003 0.7447 0.0 0
M  V30 3 C 1.3003 0.7447 0.0 0
M  V30 4 C -1.3003 2.2461 0.0 0
M  V30 5 C -2.6007 0.0 0.0 0
M  V30 6 C 2.6007 0.0 0.0 0
M  V30 7 C 0.0 2.9909 0.0 0
M  V30 8 C -2.6007 2.9909 0.0 0
M  V30 9 C -3.9011 0.7565 0.0 0
M  V30 10 C -2.6007 -1.5013 0.0 0
M  V30 11 C 3.9011 0.7447 0.0 0
M  V30 12 C 0.0 4.4922 0.0 0
M  V30 13 C -2.6007 4.4922 0.0 0
M  V30 14 C -5.2015 0.0118 0.0 0
M  V30 15 C -3.9011 -2.2461 0.0 0
M  V30 16 C 5.2015 0.0 0.0 0
M  V30 17 C 3.9011 2.2461 0.0 0
M  V30 18 C -1.3003 5.237 0.0 0
M  V30 19 C -5.2015 -1.4895 0.0 0
M  V30 END ATOM
M  V30 BEGIN BOND
M  V30 1 1 1 2
M  V30 2 1 1 3
M  V30 3 1 2 4
M  V30 4 1 2 5
M  V30 5 1 3 6
M  V30 6 2 4 7
M  V30 7 1 4 8
M  V30 8 2 5 9
M  V30 9 1 5 10
M  V30 10 1 6 11
M  V30 11 1 7 12
M  V30 12 2 8 13
M  V30 13 1 9 14
M  V30 14 2 10 15
M  V30 15 1 11 16
M  V30 16 1 11 17
M  V30 17 2 12 18
M  V30 18 2 14 19
M  V30 19 1 13 18
M  V30 20 1 15 19
M  V30 END BOND
M  V30 END CTAB
M  END
>  <Molecule Name>
Benzhydryl iso-amyl ether

>  <Activity Label>
0

>  <SMILES>
CC(C)CCOC(c1ccccc1)c1ccccc1

>  <Molecular Formula>
C18H22O

>  <InChIKey>
IPUYFJMGRYSZDC-UHFFFAOYSA-N

>  <Repellency>
Inactive

>  <Reference DOI>
10.3390/toxics11100837

>  <Target Organism>
Not applied

$$$$
Compound 956
Actelion Java MolfileCreator 2.0

  0  0  0  0  0  0              0 V3000
M  V30 BEGIN CTAB
M  V30 COUNTS 19 20 0 0 0
M  V30 BEGIN ATOM
M  V30 1 O 0.0 0.0 0.0 0
M  V30 2 C 0.0 -1.4992 0.0 0
M  V30 3 C -1.2986 -2.2548 0.0 0
M  V30 4 C 1.2986 -2.2548 0.0 0
M  V30 5 C -1.2986 -3.7541 0.0 0
M  V30 6 C -2.5972 -1.4992 0.0 0
M  V30 7 C 2.5972 -1.5111 0.0 0
M  V30 8 C -2.5972 -4.4978 0.0 0
M  V30 9 C 0.0 -4.5096 0.0 0
M  V30 10 C -3.8958 -2.243 0.0 0
M  V30 11 C -2.5972 0.0 0.0 0
M  V30 12 C 3.8958 -2.2666 0.0 0
M  V30 13 C -3.8958 -3.7541 0.0 0
M  V30 14 C 3.8958 -3.7659 0.0 0
M  V30 15 C 5.1944 -1.5229 0.0 0
M  V30 16 C -5.1944 -4.4978 0.0 0
M  V30 17 C 5.1944 -4.5215 0.0 0
M  V30 18 C 6.493 -2.2784 0.0 0
M  V30 19 C 6.493 -3.7777 0.0 0
M  V30 END ATOM
M  V30 BEGIN BOND
M  V30 1 2 1 2
M  V30 2 1 2 3
M  V30 3 1 2 4
M  V30 4 2 3 5
M  V30 5 1 3 6
M  V30 6 1 4 7
M  V30 7 1 5 8
M  V30 8 1 5 9
M  V30 9 2 6 10
M  V30 10 1 6 11
M  V30 11 1 7 12
M  V30 12 2 8 13
M  V30 13 2 12 14
M  V30 14 1 12 15
M  V30 15 1 13 16
M  V30 16 1 14 17
M  V30 17 2 15 18
M  V30 18 2 17 19
M  V30 19 1 10 13
M  V30 20 1 18 19
M  V30 END BOND
M  V30 END CTAB
M  END
>  <Molecule Name>
beta-Phenylpropionylmesitylene

>  <Activity Label>
0

>  <SMILES>
Cc1cc(C)c(C(CCc2ccccc2)=O)c(C)c1

>  <Molecular Formula>
C18H20O

>  <InChIKey>
KTAQHHHNOSPQDX-UHFFFAOYSA-N

>  <Repellency>
Inactive

>  <Reference DOI>
10.3390/toxics11100837

>  <Target Organism>
Not applied

$$$$
Compound 957
Actelion Java MolfileCreator 2.0

  0  0  0  0  0  0              0 V3000
M  V30 BEGIN CTAB
M  V30 COUNTS 19 20 0 0 0
M  V30 BEGIN ATOM
M  V30 1 O 0.0 0.0 0.0 0
M  V30 2 C 0.0 1.4998 0.0 0
M  V30 3 O -1.2991 2.2439 0.0 0
M  V30 4 C 1.2991 2.2439 0.0 0
M  V30 5 C -2.5982 1.488 0.0 0
M  V30 6 C 1.2991 3.7437 0.0 0
M  V30 7 C 2.5982 1.488 0.0 0
M  V30 8 C -3.8973 2.232 0.0 0
M  V30 9 O 0.0 4.4996 0.0 0
M  V30 10 C 2.5982 4.4878 0.0 0
M  V30 11 C 3.8973 2.232 0.0 0
M  V30 12 C -5.1964 1.4762 0.0 0
M  V30 13 C 3.8973 3.7319 0.0 0
M  V30 14 C 5.1964 1.4762 0.0 0
M  V30 15 C -6.4955 2.2202 0.0 0
M  V30 16 C 5.1964 4.4759 0.0 0
M  V30 17 C 6.4955 2.2202 0.0 0
M  V30 18 C -7.7946 1.4644 0.0 0
M  V30 19 C 6.4955 3.7201 0.0 0
M  V30 END ATOM
M  V30 BEGIN BOND
M  V30 1 2 1 2
M  V30 2 1 2 3
M  V30 3 1 2 4
M  V30 4 1 3 5
M  V30 5 1 4 6
M  V30 6 2 4 7
M  V30 7 1 5 8
M  V30 8 1 6 9
M  V30 9 2 6 10
M  V30 10 1 7 11
M  V30 11 1 8 12
M  V30 12 1 10 13
M  V30 13 1 11 14
M  V30 14 1 12 15
M  V30 15 1 13 16
M  V30 16 2 14 17
M  V30 17 1 15 18
M  V30 18 2 16 19
M  V30 19 2 11 13
M  V30 20 1 17 19
M  V30 END BOND
M  V30 END CTAB
M  END
>  <Molecule Name>
3-Hydroxy-2-naphthoic acid, n-amyl ester

>  <Activity Label>
0

>  <SMILES>
CCCCCOC(c1cc(cccc2)c2cc1O)=O

>  <Molecular Formula>
C16H18O3

>  <InChIKey>
LOSMFXCXOKGBJZ-UHFFFAOYSA-N

>  <Repellency>
Inactive

>  <Reference DOI>
10.3390/toxics11100837

>  <Target Organism>
Not applied

$$$$
Compound 958
Actelion Java MolfileCreator 2.0

  0  0  0  0  0  0              0 V3000
M  V30 BEGIN CTAB
M  V30 COUNTS 19 20 0 0 0
M  V30 BEGIN ATOM
M  V30 1 O 0.0 0.0 0.0 0
M  V30 2 C 0.0 -1.5018 0.0 0
M  V30 3 O -1.3007 -2.2468 0.0 0
M  V30 4 C 1.3007 -2.2468 0.0 0
M  V30 5 C -2.6015 -1.5018 0.0 0
M  V30 6 C 2.6015 -1.5018 0.0 0
M  V30 7 C 1.3007 -3.7486 0.0 0
M  V30 8 C -3.9023 -2.2468 0.0 0
M  V30 9 O 2.6015 0.0 0.0 0
M  V30 10 C 3.9023 -2.2468 0.0 0
M  V30 11 C 2.6015 -4.4936 0.0 0
M  V30 12 C 3.9023 0.7449 0.0 0
M  V30 13 C 3.9023 -3.7486 0.0 0
M  V30 14 C 3.9023 2.2468 0.0 0
M  V30 15 C 5.2031 2.9918 0.0 0
M  V30 16 C 2.6015 2.9918 0.0 0
M  V30 17 C 5.2031 4.4936 0.0 0
M  V30 18 C 2.6015 4.4936 0.0 0
M  V30 19 C 3.9023 5.2386 0.0 0
M  V30 END ATOM
M  V30 BEGIN BOND
M  V30 1 2 1 2
M  V30 2 1 2 3
M  V30 3 1 2 4
M  V30 4 1 3 5
M  V30 5 2 4 6
M  V30 6 1 4 7
M  V30 7 1 5 8
M  V30 8 1 6 9
M  V30 9 1 6 10
M  V30 10 2 7 11
M  V30 11 1 9 12
M  V30 12 2 10 13
M  V30 13 1 12 14
M  V30 14 2 14 15
M  V30 15 1 14 16
M  V30 16 1 15 17
M  V30 17 2 16 18
M  V30 18 2 17 19
M  V30 19 1 11 13
M  V30 20 1 18 19
M  V30 END BOND
M  V30 END CTAB
M  END
>  <Molecule Name>
2-Benzyloxybenzoic acid, ethyl ester

>  <Activity Label>
0

>  <SMILES>
CCOC(c(cccc1)c1OCc1ccccc1)=O

>  <Molecular Formula>
C16H16O3

>  <InChIKey>
YJOMWIXHFKAFOB-UHFFFAOYSA-N

>  <Repellency>
Inactive

>  <Reference DOI>
10.3390/toxics11100837

>  <Target Organism>
Not applied

$$$$
Compound 959
Actelion Java MolfileCreator 2.0

  0  0  0  0  0  0              0 V3000
M  V30 BEGIN CTAB
M  V30 COUNTS 19 20 0 0 0
M  V30 BEGIN ATOM
M  V30 1 O 0.0 0.0 0.0 0
M  V30 2 C 0.2862 -1.7311 0.0 0
M  V30 3 O -1.0086 -2.4808 0.0 0
M  V30 4 C 1.5811 -2.4808 0.0 0
M  V30 5 C -2.3036 -1.7311 0.0 0
M  V30 6 O 2.876 -1.7311 0.0 0
M  V30 7 C 1.5811 -3.9801 0.0 0
M  V30 8 C 1.5811 -0.9814 0.0 0
M  V30 9 C -3.5985 -2.4808 0.0 0
M  V30 10 C 0.2862 -4.7298 0.0 0
M  V30 11 C 2.876 -4.7298 0.0 0
M  V30 12 C 2.876 -0.2317 0.0 0
M  V30 13 C 0.5316 -0.1908 0.0 0
M  V30 14 C 0.2862 -6.2292 0.0 0
M  V30 15 C 2.876 -6.2292 0.0 0
M  V30 16 C 2.876 1.2676 0.0 0
M  V30 17 C 0.2862 1.2676 0.0 0
M  V30 18 C 1.5811 -6.9789 0.0 0
M  V30 19 C 1.5811 2.0173 0.0 0
M  V30 END ATOM
M  V30 BEGIN BOND
M  V30 1 2 1 2
M  V30 2 1 2 3
M  V30 3 1 2 4
M  V30 4 1 3 5
M  V30 5 1 4 6
M  V30 6 1 4 7
M  V30 7 1 4 8
M  V30 8 1 5 9
M  V30 9 2 7 10
M  V30 10 1 7 11
M  V30 11 2 8 12
M  V30 12 1 8 13
M  V30 13 1 10 14
M  V30 14 2 11 15
M  V30 15 1 12 16
M  V30 16 2 13 17
M  V30 17 2 14 18
M  V30 18 2 16 19
M  V30 19 1 15 18
M  V30 20 1 17 19
M  V30 END BOND
M  V30 END CTAB
M  END
>  <Molecule Name>
Benzilic acid, ethyl ester

>  <Activity Label>
0

>  <SMILES>
CCOC(C(c1ccccc1)(c1ccccc1)O)=O

>  <Molecular Formula>
C16H16O3

>  <InChIKey>
AIPVNQQMYPWQSX-UHFFFAOYSA-N

>  <Repellency>
Inactive

>  <Reference DOI>
10.3390/toxics11100837

>  <Target Organism>
Not applied

$$$$
Compound 960
Actelion Java MolfileCreator 2.0

  0  0  0  0  0  0              0 V3000
M  V30 BEGIN CTAB
M  V30 COUNTS 19 20 0 0 0
M  V30 BEGIN ATOM
M  V30 1 O 0.0 0.0 0.0 0
M  V30 2 C -1.1111 1.0047 0.0 0
M  V30 3 N -0.9574 2.4942 0.0 0
M  V30 4 C -2.5769 0.6974 0.0 0
M  V30 5 C -2.3287 3.1088 0.0 0
M  V30 6 C 0.3428 3.2389 0.0 0
M  V30 7 C -3.3216 1.9977 0.0 0
M  V30 8 C -3.3334 -0.6028 0.0 0
M  V30 9 O -2.636 4.5746 0.0 0
M  V30 10 C 1.6431 2.4823 0.0 0
M  V30 11 C -4.8229 1.9977 0.0 0
M  V30 12 C -4.8347 -0.6028 0.0 0
M  V30 13 O 2.9434 3.2271 0.0 0
M  V30 14 C -5.5794 0.6974 0.0 0
M  V30 15 C 4.2437 2.4705 0.0 0
M  V30 16 O 4.2437 0.9693 0.0 0
M  V30 17 C 5.544 3.2152 0.0 0
M  V30 18 C 6.8443 2.4587 0.0 0
M  V30 19 C 8.1445 3.2034 0.0 0
M  V30 END ATOM
M  V30 BEGIN BOND
M  V30 1 2 1 2
M  V30 2 1 2 3
M  V30 3 1 2 4
M  V30 4 1 3 5
M  V30 5 1 3 6
M  V30 6 1 4 7
M  V30 7 1 4 8
M  V30 8 2 5 9
M  V30 9 1 6 10
M  V30 10 1 7 11
M  V30 11 1 8 12
M  V30 12 1 10 13
M  V30 13 1 11 14
M  V30 14 1 13 15
M  V30 15 2 15 16
M  V30 16 1 15 17
M  V30 17 1 17 18
M  V30 18 1 18 19
M  V30 19 1 5 7
M  V30 20 2 12 14
M  V30 END BOND
M  V30 END CTAB
M  END
>  <Molecule Name>
N-beta-Butyroxyethyl-1,2,3,6-tetrahydrophthalimide

>  <Activity Label>
0

>  <SMILES>
CCCC(OCCN(C(C1C2CC=CC1)=O)C2=O)=O

>  <Molecular Formula>
C14H19NO4

>  <InChIKey>
TWXXUHMLBJNKPV-UHFFFAOYSA-N

>  <Repellency>
Inactive

>  <Reference DOI>
10.3390/toxics11100837

>  <Target Organism>
Not applied

$$$$
Compound 961
Actelion Java MolfileCreator 2.0

  0  0  0  0  0  0              0 V3000
M  V30 BEGIN CTAB
M  V30 COUNTS 19 20 0 0 0
M  V30 BEGIN ATOM
M  V30 1 O 0.0 0.0 0.0 0
M  V30 2 C -1.2992 0.7441 0.0 0
M  V30 3 O -2.5984 0.0 0.0 0
M  V30 4 C -1.2992 2.2441 0.0 0 CFG=1
M  V30 5 C -3.8977 0.7441 0.0 0
M  V30 6 C 0.0 2.9882 0.0 0
M  V30 7 C -2.5984 2.9882 0.0 0
M  V30 8 C -5.1969 0.0 0.0 0
M  V30 9 N 1.2992 3.7441 0.0 0
M  V30 10 C -2.5984 4.4882 0.0 0
M  V30 11 C -3.8977 2.2323 0.0 0
M  V30 12 C -6.4961 0.7559 0.0 0
M  V30 13 C -5.1969 -1.5 0.0 0
M  V30 14 C -3.8977 5.2441 0.0 0
M  V30 15 C -5.1969 2.9882 0.0 0
M  V30 16 C -7.7954 0.0118 0.0 0
M  V30 17 C -6.4961 -2.2441 0.0 0
M  V30 18 C -5.1969 4.4882 0.0 0
M  V30 19 C -7.7954 -1.4882 0.0 0
M  V30 END ATOM
M  V30 BEGIN BOND
M  V30 1 2 1 2
M  V30 2 1 2 3
M  V30 3 1 2 4
M  V30 4 1 3 5
M  V30 5 1 4 6 CFG=3
M  V30 6 1 4 7
M  V30 7 1 5 8
M  V30 8 3 6 9
M  V30 9 1 7 10
M  V30 10 1 7 11
M  V30 11 2 8 12
M  V30 12 1 8 13
M  V30 13 1 10 14
M  V30 14 1 11 15
M  V30 15 1 12 16
M  V30 16 2 13 17
M  V30 17 1 14 18
M  V30 18 2 16 19
M  V30 19 1 15 18
M  V30 20 1 17 19
M  V30 END BOND
M  V30 BEGIN COLLECTION
M  V30 MDLV30/STERAC1 ATOMS=(1 4)
M  V30 END COLLECTION
M  V30 END CTAB
M  END
>  <Molecule Name>
Cyclohexylcyanoacetic acid, benzyl ester

>  <Activity Label>
0

>  <SMILES>
N#CC(C1CCCCC1)C(OCc1ccccc1)=O

>  <Molecular Formula>
C16H19NO2

>  <InChIKey>
XZZXKHZOYNRVNP-UHFFFAOYSA-N

>  <Repellency>
Inactive

>  <Reference DOI>
10.3390/toxics11100837

>  <Target Organism>
Not applied

$$$$
Compound 962
Actelion Java MolfileCreator 2.0

  0  0  0  0  0  0              0 V3000
M  V30 BEGIN CTAB
M  V30 COUNTS 19 20 0 0 0
M  V30 BEGIN ATOM
M  V30 1 O 0.0 0.0 0.0 0
M  V30 2 C 1.3 0.7445 0.0 0
M  V30 3 C -1.3 0.7445 0.0 0
M  V30 4 C 2.6 0.0 0.0 0
M  V30 5 C 1.3 2.2454 0.0 0
M  V30 6 C -2.6 0.0 0.0 0
M  V30 7 C 3.9 0.7445 0.0 0
M  V30 8 C 2.6 2.99 0.0 0
M  V30 9 C -3.9 0.7445 0.0 0
M  V30 10 C 3.9 2.2454 0.0 0
M  V30 11 C -5.2 0.0 0.0 0 CFG=2
M  V30 12 C -6.5 0.7563 0.0 0
M  V30 13 C -5.2 -1.5009 0.0 0
M  V30 14 N -7.8 1.5127 0.0 0
M  V30 15 C -6.5 -2.2454 0.0 0
M  V30 16 C -3.9 -2.2572 0.0 0
M  V30 17 C -6.5 -3.7463 0.0 0
M  V30 18 C -3.9 -3.7581 0.0 0
M  V30 19 C -5.2 -4.5027 0.0 0
M  V30 END ATOM
M  V30 BEGIN BOND
M  V30 1 1 1 2
M  V30 2 1 1 3
M  V30 3 2 2 4
M  V30 4 1 2 5
M  V30 5 1 3 6
M  V30 6 1 4 7
M  V30 7 2 5 8
M  V30 8 1 6 9
M  V30 9 2 7 10
M  V30 10 1 11 9 CFG=1
M  V30 11 1 11 12
M  V30 12 1 11 13
M  V30 13 3 12 14
M  V30 14 2 13 15
M  V30 15 1 13 16
M  V30 16 1 15 17
M  V30 17 2 16 18
M  V30 18 2 17 19
M  V30 19 1 8 10
M  V30 20 1 18 19
M  V30 END BOND
M  V30 BEGIN COLLECTION
M  V30 MDLV30/STERAC1 ATOMS=(1 11)
M  V30 END COLLECTION
M  V30 END CTAB
M  END
>  <Molecule Name>
alpha-Phenyl-delta-phenoxyvaleronitrile

>  <Activity Label>
0

>  <SMILES>
N#CC(CCCOc1ccccc1)c1ccccc1

>  <Molecular Formula>
C17H17NO

>  <InChIKey>
TXGNVJXQQUOOTE-UHFFFAOYSA-N

>  <Repellency>
Inactive

>  <Reference DOI>
10.3390/toxics11100837

>  <Target Organism>
Not applied

$$$$
Compound 963
Actelion Java MolfileCreator 2.0

  0  0  0  0  0  0              0 V3000
M  V30 BEGIN CTAB
M  V30 COUNTS 19 18 0 0 0
M  V30 BEGIN ATOM
M  V30 1 Br 0.0 0.0 0.0 0
M  V30 2 C 1.3004 0.7475 0.0 0
M  V30 3 C 2.6009 0.0 0.0 0
M  V30 4 C 3.9014 0.7475 0.0 0
M  V30 5 C 5.2018 0.0 0.0 0
M  V30 6 C 6.5023 0.7475 0.0 0
M  V30 7 C 7.8028 0.0 0.0 0
M  V30 8 C 9.1032 0.7475 0.0 0
M  V30 9 C 10.4037 0.0 0.0 0
M  V30 10 C 11.7042 0.7475 0.0 0
M  V30 11 C 13.0047 0.0 0.0 0
M  V30 12 C 14.3051 0.7475 0.0 0
M  V30 13 C 15.6056 0.0 0.0 0
M  V30 14 C 16.9061 0.7475 0.0 0
M  V30 15 C 18.2065 0.0 0.0 0
M  V30 16 C 19.507 0.7475 0.0 0
M  V30 17 C 20.8075 0.0 0.0 0
M  V30 18 C 22.1079 0.7475 0.0 0
M  V30 19 C 23.4084 0.0 0.0 0
M  V30 END ATOM
M  V30 BEGIN BOND
M  V30 1 1 1 2
M  V30 2 1 2 3
M  V30 3 1 3 4
M  V30 4 1 4 5
M  V30 5 1 5 6
M  V30 6 1 6 7
M  V30 7 1 7 8
M  V30 8 1 8 9
M  V30 9 1 9 10
M  V30 10 1 10 11
M  V30 11 1 11 12
M  V30 12 1 12 13
M  V30 13 1 13 14
M  V30 14 1 14 15
M  V30 15 1 15 16
M  V30 16 1 16 17
M  V30 17 1 17 18
M  V30 18 1 18 19
M  V30 END BOND
M  V30 END CTAB
M  END
>  <Molecule Name>
Octadecyl bromide

>  <Activity Label>
0

>  <SMILES>
CCCCCCCCCCCCCCCCCCBr

>  <Molecular Formula>
C18H37Br

>  <InChIKey>
WSULSMOGMLRGKU-UHFFFAOYSA-N

>  <Repellency>
Inactive

>  <Reference DOI>
10.3390/toxics11100837

>  <Target Organism>
Not applied

$$$$
Compound 964
Actelion Java MolfileCreator 2.0

  0  0  0  0  0  0              0 V3000
M  V30 BEGIN CTAB
M  V30 COUNTS 19 18 0 0 0
M  V30 BEGIN ATOM
M  V30 1 O 0.0 0.0 0.0 0
M  V30 2 C 0.0 -1.5021 0.0 0
M  V30 3 O 1.301 -2.2473 0.0 0
M  V30 4 C -1.301 -2.2473 0.0 0
M  V30 5 C 2.6021 -1.5021 0.0 0
M  V30 6 C -2.6021 -1.5021 0.0 0
M  V30 7 C 3.9032 -2.2473 0.0 0
M  V30 8 C 2.6021 0.0 0.0 0
M  V30 9 C -3.9032 -2.2473 0.0 0
M  V30 10 C -5.2043 -1.5021 0.0 0
M  V30 11 C -6.5054 -2.2473 0.0 0
M  V30 12 C -7.8065 -1.5021 0.0 0
M  V30 13 C -9.1076 -2.2473 0.0 0
M  V30 14 C -10.4087 -1.5021 0.0 0
M  V30 15 O -10.4087 0.0 0.0 0
M  V30 16 O -11.7098 -2.2473 0.0 0
M  V30 17 C -13.0109 -1.5021 0.0 0
M  V30 18 C -13.0109 0.0 0.0 0
M  V30 19 C -14.312 -2.2473 0.0 0
M  V30 END ATOM
M  V30 BEGIN BOND
M  V30 1 2 1 2
M  V30 2 1 2 3
M  V30 3 1 2 4
M  V30 4 1 3 5
M  V30 5 1 4 6
M  V30 6 1 5 7
M  V30 7 1 5 8
M  V30 8 1 6 9
M  V30 9 1 9 10
M  V30 10 1 10 11
M  V30 11 1 11 12
M  V30 12 1 12 13
M  V30 13 1 13 14
M  V30 14 2 14 15
M  V30 15 1 14 16
M  V30 16 1 16 17
M  V30 17 1 17 18
M  V30 18 1 17 19
M  V30 END BOND
M  V30 END CTAB
M  END
>  <Molecule Name>
Azelaic acid, di-iso-propyl ester

>  <Activity Label>
0

>  <SMILES>
CC(C)OC(CCCCCCCC(OC(C)C)=O)=O

>  <Molecular Formula>
C15H28O4

>  <InChIKey>
MCQNUBHLBYBDRS-UHFFFAOYSA-N

>  <Repellency>
Inactive

>  <Reference DOI>
10.3390/toxics11100837

>  <Target Organism>
Not applied

$$$$
Compound 965
Actelion Java MolfileCreator 2.0

  0  0  0  0  0  0              0 V3000
M  V30 BEGIN CTAB
M  V30 COUNTS 19 18 0 0 0
M  V30 BEGIN ATOM
M  V30 1 O 0.0 0.0 0.0 0
M  V30 2 C -1.2993 0.7441 0.0 0
M  V30 3 O -2.5987 -0.0118 0.0 0
M  V30 4 C -1.2993 2.2443 0.0 0
M  V30 5 C -3.8981 0.7323 0.0 0
M  V30 6 C -1.2993 3.7445 0.0 0
M  V30 7 C 0.0 2.9885 0.0 0
M  V30 8 C -2.5987 2.9885 0.0 0
M  V30 9 C -5.1974 -0.0236 0.0 0
M  V30 10 O -2.5987 4.4887 0.0 0
M  V30 11 O 0.0 4.5005 0.0 0
M  V30 12 C 1.2993 2.2325 0.0 0
M  V30 13 C -3.8981 2.2325 0.0 0
M  V30 14 C 1.2993 3.7563 0.0 0
M  V30 15 C 2.5987 2.9767 0.0 0
M  V30 16 C -5.1974 2.9767 0.0 0
M  V30 17 C 2.5987 4.5005 0.0 0
M  V30 18 C 3.8981 2.2207 0.0 0
M  V30 19 C -6.4968 2.2207 0.0 0
M  V30 END ATOM
M  V30 BEGIN BOND
M  V30 1 2 1 2
M  V30 2 1 2 3
M  V30 3 1 2 4
M  V30 4 1 3 5
M  V30 5 1 4 6
M  V30 6 1 4 7
M  V30 7 1 4 8
M  V30 8 1 5 9
M  V30 9 2 6 10
M  V30 10 1 6 11
M  V30 11 2 7 12 CFG=2
M  V30 12 1 8 13
M  V30 13 1 11 14
M  V30 14 1 12 15
M  V30 15 1 13 16
M  V30 16 1 14 17
M  V30 17 1 15 18
M  V30 18 1 16 19
M  V30 END BOND
M  V30 END CTAB
M  END
>  <Molecule Name>
(1-Butenyl)butylmalonic acid, diethyl ester

>  <Activity Label>
0

>  <SMILES>
CCCCC(C=CCC)(C(OCC)=O)C(OCC)=O

>  <Molecular Formula>
C15H26O4

>  <InChIKey>
SDMWCYXLXCHOQQ-UHFFFAOYSA-N

>  <Repellency>
Inactive

>  <Reference DOI>
10.3390/toxics11100837

>  <Target Organism>
Not applied

$$$$
Compound 966
Actelion Java MolfileCreator 2.0

  0  0  0  0  0  0              0 V3000
M  V30 BEGIN CTAB
M  V30 COUNTS 19 18 0 0 0
M  V30 BEGIN ATOM
M  V30 1 O 0.0 0.0 0.0 0
M  V30 2 C -1.2993 0.7441 0.0 0
M  V30 3 O -2.5987 -0.0118 0.0 0
M  V30 4 C -1.2993 2.2443 0.0 0
M  V30 5 C -3.8981 0.7323 0.0 0
M  V30 6 C -1.2993 3.7445 0.0 0
M  V30 7 C -2.5987 2.9885 0.0 0
M  V30 8 C 0.0 2.9885 0.0 0
M  V30 9 C -5.1974 -0.0236 0.0 0
M  V30 10 O -2.5987 4.4887 0.0 0
M  V30 11 O 0.0 4.5005 0.0 0
M  V30 12 C -3.8981 2.2325 0.0 0
M  V30 13 C 1.2993 2.2325 0.0 0
M  V30 14 C 1.2993 3.7563 0.0 0
M  V30 15 C -5.1974 2.9767 0.0 0
M  V30 16 C 2.5987 2.9767 0.0 0
M  V30 17 C 2.5987 4.5005 0.0 0
M  V30 18 C -6.4968 2.2207 0.0 0
M  V30 19 C 3.8981 2.2207 0.0 0
M  V30 END ATOM
M  V30 BEGIN BOND
M  V30 1 2 1 2
M  V30 2 1 2 3
M  V30 3 1 2 4
M  V30 4 1 3 5
M  V30 5 1 4 6
M  V30 6 1 4 7
M  V30 7 1 4 8
M  V30 8 1 5 9
M  V30 9 2 6 10
M  V30 10 1 6 11
M  V30 11 1 7 12
M  V30 12 1 8 13
M  V30 13 1 11 14
M  V30 14 2 12 15 CFG=2
M  V30 15 1 13 16
M  V30 16 1 14 17
M  V30 17 1 15 18
M  V30 18 1 16 19
M  V30 END BOND
M  V30 END CTAB
M  END
>  <Molecule Name>
Butylcrotylmalonic acid, diethyl ester

>  <Activity Label>
0

>  <SMILES>
CCCCC(CC=CC)(C(OCC)=O)C(OCC)=O

>  <Molecular Formula>
C15H26O4

>  <InChIKey>
QAFHGVOPDMQVML-UHFFFAOYSA-N

>  <Repellency>
Inactive

>  <Reference DOI>
10.3390/toxics11100837

>  <Target Organism>
Not applied

$$$$
Compound 967
Actelion Java MolfileCreator 2.0

  0  0  0  0  0  0              0 V3000
M  V30 BEGIN CTAB
M  V30 COUNTS 19 18 0 0 0
M  V30 BEGIN ATOM
M  V30 1 O 0.0 0.0 0.0 0
M  V30 2 C 0.0 -1.5246 0.0 0
M  V30 3 O 1.3925 -2.1128 0.0 0
M  V30 4 C -1.3205 -2.2929 0.0 0
M  V30 5 C 2.641 -1.5246 0.0 0
M  V30 6 C 0.0 -3.0612 0.0 0
M  V30 7 C -2.641 -1.5366 0.0 0
M  V30 8 C -1.3205 -3.8175 0.0 0
M  V30 9 C 3.9616 -2.2929 0.0 0
M  V30 10 O 1.1644 -2.653 0.0 0
M  V30 11 O 0.0 -4.5858 0.0 0
M  V30 12 C -3.9616 -2.3049 0.0 0
M  V30 13 C -2.641 -4.5738 0.0 0
M  V30 14 C -1.3205 -5.3421 0.0 0
M  V30 15 C -5.2821 -1.5486 0.0 0
M  V30 16 C -1.3205 -6.8668 0.0 0
M  V30 17 C -6.6027 -2.3169 0.0 0
M  V30 18 C -7.9232 -1.5606 0.0 0
M  V30 19 C -9.2438 -2.3289 0.0 0
M  V30 END ATOM
M  V30 BEGIN BOND
M  V30 1 2 1 2
M  V30 2 1 2 3
M  V30 3 1 2 4
M  V30 4 1 3 5
M  V30 5 1 4 6
M  V30 6 1 4 7
M  V30 7 1 4 8
M  V30 8 1 5 9
M  V30 9 2 6 10
M  V30 10 1 6 11
M  V30 11 2 7 12 CFG=2
M  V30 12 1 8 13
M  V30 13 1 11 14
M  V30 14 1 12 15
M  V30 15 1 14 16
M  V30 16 1 15 17
M  V30 17 1 17 18
M  V30 18 1 18 19
M  V30 END BOND
M  V30 END CTAB
M  END
>  <Molecule Name>
(1-Hexenyl)ethylmalonic acid diethyl ester

>  <Activity Label>
0

>  <SMILES>
CCCCC=CC(CC)(C(OCC)=O)C(OCC)=O

>  <Molecular Formula>
C15H26O4

>  <InChIKey>
AAOCYYNWPPNCHD-UHFFFAOYSA-N

>  <Repellency>
Inactive

>  <Reference DOI>
10.3390/toxics11100837

>  <Target Organism>
Not applied

$$$$
Compound 968
Actelion Java MolfileCreator 2.0

  0  0  0  0  0  0              0 V3000
M  V30 BEGIN CTAB
M  V30 COUNTS 19 18 0 0 0
M  V30 BEGIN ATOM
M  V30 1 O 0.0 0.0 0.0 0
M  V30 2 C 0.0 -1.4998 0.0 0
M  V30 3 O 1.2991 -2.2557 0.0 0
M  V30 4 C -1.2991 -2.2557 0.0 0
M  V30 5 C 2.5982 -1.5116 0.0 0
M  V30 6 C -2.5982 -1.5116 0.0 0 CFG=2
M  V30 7 C 3.8973 -2.2675 0.0 0
M  V30 8 O -2.5982 -0.0118 0.0 0
M  V30 9 C -3.8973 -2.2675 0.0 0
M  V30 10 C 5.1964 -1.5234 0.0 0
M  V30 11 C -3.8973 0.744 0.0 0
M  V30 12 C -5.1964 -1.5234 0.0 0
M  V30 13 C -3.8973 -3.7674 0.0 0
M  V30 14 O -5.1964 0.0 0.0 0
M  V30 15 C -3.8973 2.2439 0.0 0
M  V30 16 C -6.4955 -2.2793 0.0 0
M  V30 17 C -2.5982 -4.5114 0.0 0
M  V30 18 C -7.7946 -1.5353 0.0 0
M  V30 19 C -9.0937 -2.2911 0.0 0
M  V30 END ATOM
M  V30 BEGIN BOND
M  V30 1 2 1 2
M  V30 2 1 2 3
M  V30 3 1 2 4
M  V30 4 1 3 5
M  V30 5 1 4 6
M  V30 6 1 5 7
M  V30 7 1 6 8 CFG=1
M  V30 8 1 6 9
M  V30 9 2 7 10
M  V30 10 1 8 11
M  V30 11 2 9 12 CFG=2
M  V30 12 1 9 13
M  V30 13 2 11 14
M  V30 14 1 11 15
M  V30 15 1 12 16
M  V30 16 1 13 17
M  V30 17 1 16 18
M  V30 18 1 18 19
M  V30 END BOND
M  V30 BEGIN COLLECTION
M  V30 MDLV30/STERAC1 ATOMS=(1 6)
M  V30 END COLLECTION
M  V30 END CTAB
M  END
>  <Molecule Name>
3-Acetoxy-4-ethyl-4-octenoic acid, allyl ester

>  <Activity Label>
0

>  <SMILES>
CCCC=C(CC)C(CC(OCC=C)=O)OC(C)=O

>  <Molecular Formula>
C15H24O4

>  <InChIKey>
JQVBOLSLVPXONT-UHFFFAOYSA-N

>  <Repellency>
Inactive

>  <Reference DOI>
10.3390/toxics11100837

>  <Target Organism>
Not applied

$$$$
Compound 969
Actelion Java MolfileCreator 2.0

  0  0  0  0  0  0              0 V3000
M  V30 BEGIN CTAB
M  V30 COUNTS 19 18 0 0 0
M  V30 BEGIN ATOM
M  V30 1 O 0.0 0.0 0.0 0
M  V30 2 C 0.0 -1.4998 0.0 0
M  V30 3 O 1.2991 -2.2557 0.0 0
M  V30 4 C -1.2991 -2.2557 0.0 0
M  V30 5 C 2.5982 -1.5116 0.0 0
M  V30 6 C -2.5982 -1.5116 0.0 0
M  V30 7 C 3.8973 -2.2675 0.0 0
M  V30 8 O -2.5982 -0.0118 0.0 0
M  V30 9 C -3.8973 -2.2675 0.0 0
M  V30 10 C 5.1964 -1.5234 0.0 0
M  V30 11 C -3.8973 0.744 0.0 0
M  V30 12 C -5.1964 -1.5234 0.0 0
M  V30 13 C -3.8973 -3.7674 0.0 0
M  V30 14 O -5.1964 0.0 0.0 0
M  V30 15 C -3.8973 2.2439 0.0 0
M  V30 16 C -6.4955 -2.2793 0.0 0
M  V30 17 C -2.5982 -4.5114 0.0 0
M  V30 18 C -7.7946 -1.5353 0.0 0
M  V30 19 C -9.0937 -2.2911 0.0 0
M  V30 END ATOM
M  V30 BEGIN BOND
M  V30 1 2 1 2
M  V30 2 1 2 3
M  V30 3 1 2 4
M  V30 4 1 3 5
M  V30 5 1 4 6
M  V30 6 1 5 7
M  V30 7 1 6 8
M  V30 8 1 6 9
M  V30 9 2 7 10
M  V30 10 1 8 11
M  V30 11 1 9 12
M  V30 12 1 9 13
M  V30 13 2 11 14
M  V30 14 1 11 15
M  V30 15 1 12 16
M  V30 16 1 13 17
M  V30 17 1 16 18
M  V30 18 1 18 19
M  V30 END BOND
M  V30 END CTAB
M  END
>  <Molecule Name>
3-Acetoxy-4-ethyloctanoic acid, allyl ester

>  <Activity Label>
0

>  <SMILES>
CCCCC(CC)C(CC(OCC=C)=O)OC(C)=O

>  <Molecular Formula>
C15H26O4

>  <InChIKey>
LFHSPKXNTLJSCB-UHFFFAOYSA-N

>  <Repellency>
Inactive

>  <Reference DOI>
10.3390/toxics11100837

>  <Target Organism>
Not applied

$$$$
Compound 970
Actelion Java MolfileCreator 2.0

  0  0  0  0  0  0              0 V3000
M  V30 BEGIN CTAB
M  V30 COUNTS 19 18 0 0 0
M  V30 BEGIN ATOM
M  V30 1 O 0.0 0.0 0.0 0
M  V30 2 C 0.0 1.5 0.0 0
M  V30 3 O -1.2992 2.2441 0.0 0
M  V30 4 C 1.2992 2.2441 0.0 0
M  V30 5 C -2.5984 1.4882 0.0 0
M  V30 6 C 2.5984 1.4882 0.0 0
M  V30 7 C 3.8976 2.2323 0.0 0
M  V30 8 C 5.1968 1.4763 0.0 0
M  V30 9 C 6.4961 2.2204 0.0 0
M  V30 10 C 7.7953 1.4645 0.0 0
M  V30 11 C 9.0945 2.2086 0.0 0
M  V30 12 C 10.3937 1.4527 0.0 0
M  V30 13 C 11.693 2.1968 0.0 0
M  V30 14 C 12.9922 1.4409 0.0 0
M  V30 15 C 14.2914 2.185 0.0 0
M  V30 16 C 15.5906 1.4291 0.0 0
M  V30 17 C 16.8899 2.1732 0.0 0
M  V30 18 C 18.1891 1.4173 0.0 0
M  V30 19 C 19.4883 2.1614 0.0 0
M  V30 END ATOM
M  V30 BEGIN BOND
M  V30 1 2 1 2
M  V30 2 1 2 3
M  V30 3 1 2 4
M  V30 4 1 3 5
M  V30 5 1 4 6
M  V30 6 1 6 7
M  V30 7 1 7 8
M  V30 8 1 8 9
M  V30 9 1 9 10
M  V30 10 1 10 11
M  V30 11 1 11 12
M  V30 12 1 12 13
M  V30 13 1 13 14
M  V30 14 1 14 15
M  V30 15 1 15 16
M  V30 16 1 16 17
M  V30 17 1 17 18
M  V30 18 1 18 19
M  V30 END BOND
M  V30 END CTAB
M  END
>  <Molecule Name>
Palmitic acid, methyl ester

>  <Activity Label>
0

>  <SMILES>
CCCCCCCCCCCCCCCC(OC)=O

>  <Molecular Formula>
C17H34O2

>  <InChIKey>
FLIACVVOZYBSBS-UHFFFAOYSA-N

>  <Repellency>
Inactive

>  <Reference DOI>
10.3390/toxics11100837

>  <Target Organism>
Not applied

$$$$
Compound 971
Actelion Java MolfileCreator 2.0

  0  0  0  0  0  0              0 V3000
M  V30 BEGIN CTAB
M  V30 COUNTS 19 18 0 0 0
M  V30 BEGIN ATOM
M  V30 1 O 0.0 0.0 0.0 0
M  V30 2 C 0.0 -1.4998 0.0 0
M  V30 3 O -1.2991 -2.2557 0.0 0
M  V30 4 C 1.2991 -2.2557 0.0 0
M  V30 5 C -2.5982 -1.5116 0.0 0
M  V30 6 C 2.5982 -1.5116 0.0 0
M  V30 7 C -2.5982 -0.0118 0.0 0
M  V30 8 C -3.8973 -2.2675 0.0 0
M  V30 9 C -3.8973 0.744 0.0 0
M  V30 10 C -5.1964 -1.5234 0.0 0
M  V30 11 C -5.1964 0.0 0.0 0
M  V30 12 C -3.8973 2.2439 0.0 0
M  V30 13 C -6.4955 -2.2793 0.0 0
M  V30 14 C -7.7946 -1.5353 0.0 0
M  V30 15 C -6.4955 -3.7792 0.0 0
M  V30 16 C -9.0937 -2.2911 0.0 0
M  V30 17 C -5.1964 -4.5232 0.0 0
M  V30 18 C -10.3928 -1.5471 0.0 0
M  V30 19 C -11.6919 -2.3029 0.0 0
M  V30 END ATOM
M  V30 BEGIN BOND
M  V30 1 2 1 2
M  V30 2 1 2 3
M  V30 3 1 2 4
M  V30 4 1 3 5
M  V30 5 2 4 6
M  V30 6 1 5 7
M  V30 7 1 5 8
M  V30 8 1 7 9
M  V30 9 1 8 10
M  V30 10 1 9 11
M  V30 11 1 9 12
M  V30 12 1 10 13
M  V30 13 1 13 14
M  V30 14 1 13 15
M  V30 15 1 14 16
M  V30 16 1 15 17
M  V30 17 1 16 18
M  V30 18 1 18 19
M  V30 END BOND
M  V30 END CTAB
M  END
>  <Molecule Name>
Acrylic acid, 2-methyl-7-ethyl-4-undecyl ester

>  <Activity Label>
0

>  <SMILES>
CCCCC(CC)CCC(CC(C)C)OC(C=C)=O

>  <Molecular Formula>
C17H32O2

>  <InChIKey>
LGFRVWZJVRDUSD-UHFFFAOYSA-N

>  <Repellency>
Inactive

>  <Reference DOI>
10.3390/toxics11100837

>  <Target Organism>
Not applied

$$$$
Compound 972
Actelion Java MolfileCreator 2.0

  0  0  0  0  0  0              0 V3000
M  V30 BEGIN CTAB
M  V30 COUNTS 19 18 0 0 0
M  V30 BEGIN ATOM
M  V30 1 Cl 0.0 0.0 0.0 0
M  V30 2 C 1.2992 0.7441 0.0 0
M  V30 3 C 2.5984 -0.0118 0.0 0
M  V30 4 O 3.8976 0.7322 0.0 0
M  V30 5 C 5.1968 -0.0236 0.0 0
M  V30 6 O 5.1968 -1.5236 0.0 0
M  V30 7 C 6.4961 0.7204 0.0 0
M  V30 8 C 7.7953 -0.0354 0.0 0
M  V30 9 C 9.0945 0.7086 0.0 0
M  V30 10 C 10.3937 -0.0472 0.0 0
M  V30 11 C 11.693 0.6968 0.0 0
M  V30 12 C 12.9922 -0.059 0.0 0
M  V30 13 C 14.2914 0.685 0.0 0
M  V30 14 C 15.5906 -0.0708 0.0 0
M  V30 15 C 16.8899 0.6732 0.0 0
M  V30 16 C 18.1891 -0.0826 0.0 0
M  V30 17 C 19.4883 0.6614 0.0 0
M  V30 18 C 20.7875 -0.0944 0.0 0
M  V30 19 C 22.0868 0.6496 0.0 0
M  V30 END ATOM
M  V30 BEGIN BOND
M  V30 1 1 1 2
M  V30 2 1 2 3
M  V30 3 1 3 4
M  V30 4 1 4 5
M  V30 5 2 5 6
M  V30 6 1 5 7
M  V30 7 1 7 8
M  V30 8 1 8 9
M  V30 9 1 9 10
M  V30 10 1 10 11
M  V30 11 1 11 12
M  V30 12 1 12 13
M  V30 13 1 13 14
M  V30 14 1 14 15
M  V30 15 1 15 16
M  V30 16 1 16 17
M  V30 17 1 17 18
M  V30 18 1 18 19
M  V30 END BOND
M  V30 END CTAB
M  END
>  <Molecule Name>
Myristic acid, chloroethyl ester

>  <Activity Label>
0

>  <SMILES>
CCCCCCCCCCCCCC(OCCCl)=O

>  <Molecular Formula>
C16H31O2Cl

>  <InChIKey>
MPNMNLLETRXDEX-UHFFFAOYSA-N

>  <Repellency>
Inactive

>  <Reference DOI>
10.3390/toxics11100837

>  <Target Organism>
Not applied

$$$$
Compound 973
Actelion Java MolfileCreator 2.0

  0  0  0  0  0  0              0 V3000
M  V30 BEGIN CTAB
M  V30 COUNTS 19 18 0 0 0
M  V30 BEGIN ATOM
M  V30 1 Cl 0.0 0.0 0.0 0
M  V30 2 C -0.7454 -1.3015 0.0 0
M  V30 3 Cl 0.556 -2.0469 0.0 0
M  V30 4 Cl -1.4908 -2.603 0.0 0
M  V30 5 C -2.0469 -0.556 0.0 0
M  V30 6 O -2.0469 0.9465 0.0 0
M  V30 7 O -3.3484 -1.3015 0.0 0
M  V30 8 C -4.6499 -0.556 0.0 0
M  V30 9 C -5.9514 -1.3015 0.0 0
M  V30 10 C -7.2529 -0.556 0.0 0
M  V30 11 C -8.5544 -1.3015 0.0 0
M  V30 12 C -9.8559 -0.556 0.0 0
M  V30 13 C -11.1574 -1.3015 0.0 0
M  V30 14 C -12.4589 -0.556 0.0 0
M  V30 15 C -13.7604 -1.3015 0.0 0
M  V30 16 C -15.0619 -0.556 0.0 0
M  V30 17 C -16.3634 -1.3015 0.0 0
M  V30 18 C -17.6649 -0.556 0.0 0
M  V30 19 C -18.9664 -1.3015 0.0 0
M  V30 END ATOM
M  V30 BEGIN BOND
M  V30 1 1 1 2
M  V30 2 1 2 3
M  V30 3 1 2 4
M  V30 4 1 2 5
M  V30 5 2 5 6
M  V30 6 1 5 7
M  V30 7 1 7 8
M  V30 8 1 8 9
M  V30 9 1 9 10
M  V30 10 1 10 11
M  V30 11 1 11 12
M  V30 12 1 12 13
M  V30 13 1 13 14
M  V30 14 1 14 15
M  V30 15 1 15 16
M  V30 16 1 16 17
M  V30 17 1 17 18
M  V30 18 1 18 19
M  V30 END BOND
M  V30 END CTAB
M  END
>  <Molecule Name>
Trichloroacetic acid, dodecyl ester

>  <Activity Label>
0

>  <SMILES>
CCCCCCCCCCCCOC(C(Cl)(Cl)Cl)=O

>  <Molecular Formula>
C14H25O2Cl3

>  <InChIKey>
LFBVFMYQESVNJY-UHFFFAOYSA-N

>  <Repellency>
Inactive

>  <Reference DOI>
10.3390/toxics11100837

>  <Target Organism>
Not applied

$$$$
Compound 974
Actelion Java MolfileCreator 2.0

  0  0  0  0  0  0              0 V3000
M  V30 BEGIN CTAB
M  V30 COUNTS 19 18 0 0 0
M  V30 BEGIN ATOM
M  V30 1 O 0.0 0.0 0.0 0
M  V30 2 C 0.0 -1.5013 0.0 0
M  V30 3 O 1.3003 -2.2461 0.0 0
M  V30 4 C -1.3003 -2.2461 0.0 0
M  V30 5 C 2.6007 -1.5013 0.0 0
M  V30 6 C -1.3003 -3.7474 0.0 0
M  V30 7 C -2.6007 -1.5013 0.0 0
M  V30 8 C 3.9011 -2.2461 0.0 0
M  V30 9 O -2.6007 -4.4922 0.0 0
M  V30 10 O 0.0 -4.504 0.0 0
M  V30 11 C -3.9011 -2.2461 0.0 0 CFG=1
M  V30 12 C 0.0 -6.0054 0.0 0
M  V30 13 C -5.2015 -1.5013 0.0 0
M  V30 14 C -3.9011 -3.7474 0.0 0
M  V30 15 C 1.3003 -6.762 0.0 0
M  V30 16 O -5.2015 0.0 0.0 0
M  V30 17 O -6.5019 -2.2461 0.0 0
M  V30 18 C -7.8023 -1.5013 0.0 0
M  V30 19 C -9.1027 -2.2461 0.0 0
M  V30 END ATOM
M  V30 BEGIN BOND
M  V30 1 2 1 2
M  V30 2 1 2 3
M  V30 3 1 2 4
M  V30 4 1 3 5
M  V30 5 1 4 6
M  V30 6 1 4 7
M  V30 7 1 5 8
M  V30 8 2 6 9
M  V30 9 1 6 10
M  V30 10 1 7 11
M  V30 11 1 10 12
M  V30 12 1 11 13
M  V30 13 1 11 14 CFG=3
M  V30 14 1 12 15
M  V30 15 2 13 16
M  V30 16 1 13 17
M  V30 17 1 17 18
M  V30 18 1 18 19
M  V30 END BOND
M  V30 BEGIN COLLECTION
M  V30 MDLV30/STERAC1 ATOMS=(1 11)
M  V30 END COLLECTION
M  V30 END CTAB
M  END
>  <Molecule Name>
alpha-Carboethoxy-alpha'-methylglutaric acid, diethyl ester

>  <Activity Label>
0

>  <SMILES>
CCOC(C(C)CC(C(OCC)=O)C(OCC)=O)=O

>  <Molecular Formula>
C13H22O6

>  <InChIKey>
ILKYNBSNODHAAI-UHFFFAOYSA-N

>  <Repellency>
Inactive

>  <Reference DOI>
10.3390/toxics11100837

>  <Target Organism>
Not applied

$$$$
Compound 975
Actelion Java MolfileCreator 2.0

  0  0  0  0  0  0              0 V3000
M  V30 BEGIN CTAB
M  V30 COUNTS 19 18 0 0 0
M  V30 BEGIN ATOM
M  V30 1 O 0.0 0.0 0.0 0
M  V30 2 C 1.3008 0.745 0.0 0
M  V30 3 C 2.6016 0.0 0.0 0
M  V30 4 C 3.9024 0.745 0.0 0
M  V30 5 C 5.2032 0.0 0.0 0
M  V30 6 C 6.504 0.745 0.0 0
M  V30 7 C 7.8048 0.0 0.0 0
M  V30 8 C 9.1056 0.745 0.0 0
M  V30 9 C 10.4064 0.0 0.0 0
M  V30 10 C 11.7073 0.745 0.0 0
M  V30 11 C 13.0081 0.0 0.0 0
M  V30 12 C 13.0081 -1.5018 0.0 0
M  V30 13 C 14.3089 -2.2468 0.0 0
M  V30 14 C 14.3089 -3.7487 0.0 0
M  V30 15 C 15.6097 -4.5055 0.0 0
M  V30 16 C 15.6097 -6.0073 0.0 0
M  V30 17 C 16.9105 -6.7523 0.0 0
M  V30 18 C 16.9105 -8.2542 0.0 0
M  V30 19 C 18.2113 -8.9992 0.0 0
M  V30 END ATOM
M  V30 BEGIN BOND
M  V30 1 1 1 2
M  V30 2 1 2 3
M  V30 3 1 3 4
M  V30 4 1 4 5
M  V30 5 1 5 6
M  V30 6 1 6 7
M  V30 7 1 7 8
M  V30 8 1 8 9
M  V30 9 1 9 10
M  V30 10 2 10 11
M  V30 11 1 11 12
M  V30 12 1 12 13
M  V30 13 1 13 14
M  V30 14 1 14 15
M  V30 15 1 15 16
M  V30 16 1 16 17
M  V30 17 1 17 18
M  V30 18 1 18 19
M  V30 END BOND
M  V30 END CTAB
M  END
>  <Molecule Name>
Oleyl alcohol

>  <Activity Label>
0

>  <SMILES>
CCCCCCCC/C=C\CCCCCCCCO

>  <Molecular Formula>
C18H36O

>  <InChIKey>
ALSTYHKOOCGGFT-KTKRTIGZSA-N

>  <Repellency>
Inactive

>  <Reference DOI>
10.3390/toxics11100837

>  <Target Organism>
Not applied

$$$$
Compound 976
Actelion Java MolfileCreator 2.0

  0  0  0  0  0  0              0 V3000
M  V30 BEGIN CTAB
M  V30 COUNTS 19 18 0 0 0
M  V30 BEGIN ATOM
M  V30 1 O 0.0 0.0 0.0 0
M  V30 2 C 0.0 -1.5021 0.0 0
M  V30 3 O 1.301 -2.2473 0.0 0
M  V30 4 C -1.301 -2.2473 0.0 0
M  V30 5 C 2.6021 -1.5021 0.0 0
M  V30 6 O -2.6021 -1.5021 0.0 0
M  V30 7 C 3.9032 -2.2473 0.0 0
M  V30 8 C 2.6021 0.0 0.0 0
M  V30 9 C -3.9032 -2.2473 0.0 0
M  V30 10 C 5.2043 -1.5021 0.0 0
M  V30 11 C -5.2043 -1.5021 0.0 0
M  V30 12 C 6.5054 -2.2473 0.0 0
M  V30 13 O -5.2043 0.0 0.0 0
M  V30 14 O -6.5054 -2.2473 0.0 0
M  V30 15 C -7.8065 -1.5021 0.0 0
M  V30 16 C -9.1076 -2.2473 0.0 0
M  V30 17 C -7.8065 0.0 0.0 0
M  V30 18 C -10.4087 -1.5021 0.0 0
M  V30 19 C -11.7098 -2.2473 0.0 0
M  V30 END ATOM
M  V30 BEGIN BOND
M  V30 1 2 1 2
M  V30 2 1 2 3
M  V30 3 1 2 4
M  V30 4 1 3 5
M  V30 5 1 4 6
M  V30 6 1 5 7
M  V30 7 1 5 8
M  V30 8 1 6 9
M  V30 9 1 7 10
M  V30 10 1 9 11
M  V30 11 1 10 12
M  V30 12 2 11 13
M  V30 13 1 11 14
M  V30 14 1 14 15
M  V30 15 1 15 16
M  V30 16 1 15 17
M  V30 17 1 16 18
M  V30 18 1 18 19
M  V30 END BOND
M  V30 END CTAB
M  END
>  <Molecule Name>
Diglycolic acid, di-sec-amyl ester

>  <Activity Label>
0

>  <SMILES>
CCCC(C)OC(COCC(OC(C)CCC)=O)=O

>  <Molecular Formula>
C14H26O5

>  <InChIKey>
AYXISPFARYYDAT-UHFFFAOYSA-N

>  <Repellency>
Inactive

>  <Reference DOI>
10.3390/toxics11100837

>  <Target Organism>
Not applied

$$$$
Compound 977
Actelion Java MolfileCreator 2.0

  0  0  0  0  0  0              0 V3000
M  V30 BEGIN CTAB
M  V30 COUNTS 19 18 0 0 0
M  V30 BEGIN ATOM
M  V30 1 O 0.0 0.0 0.0 0
M  V30 2 C 0.0 1.4972 0.0 0
M  V30 3 O 1.2968 2.2517 0.0 0
M  V30 4 C -1.2968 2.2517 0.0 0
M  V30 5 C 2.5936 1.4972 0.0 0
M  V30 6 O -2.5936 1.4972 0.0 0
M  V30 7 C 3.8904 2.2517 0.0 0
M  V30 8 C -3.8904 2.2517 0.0 0
M  V30 9 C 5.1872 1.4972 0.0 0
M  V30 10 C -5.1872 1.4972 0.0 0
M  V30 11 C 6.4841 2.2517 0.0 0
M  V30 12 O -5.1872 0.0 0.0 0
M  V30 13 O -6.4841 2.2517 0.0 0
M  V30 14 C 7.7809 1.4972 0.0 0
M  V30 15 C -7.7809 1.4972 0.0 0
M  V30 16 C -9.0777 2.2517 0.0 0
M  V30 17 C -10.3745 1.4972 0.0 0
M  V30 18 C -11.6713 2.2517 0.0 0
M  V30 19 C -12.9682 1.4972 0.0 0
M  V30 END ATOM
M  V30 BEGIN BOND
M  V30 1 2 1 2
M  V30 2 1 2 3
M  V30 3 1 2 4
M  V30 4 1 3 5
M  V30 5 1 4 6
M  V30 6 1 5 7
M  V30 7 1 6 8
M  V30 8 1 7 9
M  V30 9 1 8 10
M  V30 10 1 9 11
M  V30 11 2 10 12
M  V30 12 1 10 13
M  V30 13 1 11 14
M  V30 14 1 13 15
M  V30 15 1 15 16
M  V30 16 1 16 17
M  V30 17 1 17 18
M  V30 18 1 18 19
M  V30 END BOND
M  V30 END CTAB
M  END
>  <Molecule Name>
Diglycolic acid, diamyl ester

>  <Activity Label>
0

>  <SMILES>
CCCCCOC(COCC(OCCCCC)=O)=O

>  <Molecular Formula>
C14H26O5

>  <InChIKey>
NEQZPYLWVJNMHS-UHFFFAOYSA-N

>  <Repellency>
Inactive

>  <Reference DOI>
10.3390/toxics11100837

>  <Target Organism>
Not applied

$$$$
Compound 978
Actelion Java MolfileCreator 2.0

  0  0  0  0  0  0              0 V3000
M  V30 BEGIN CTAB
M  V30 COUNTS 19 18 0 0 0
M  V30 BEGIN ATOM
M  V30 1 O 0.0 0.0 0.0 0
M  V30 2 C 0.0 -1.4995 0.0 0
M  V30 3 O 1.2988 -2.2552 0.0 0
M  V30 4 C -1.2988 -2.2552 0.0 0
M  V30 5 C 2.5976 -1.5113 0.0 0
M  V30 6 C -2.5976 -1.5113 0.0 0
M  V30 7 C 3.8964 -2.267 0.0 0
M  V30 8 C -3.8964 -2.267 0.0 0 CFG=2
M  V30 9 C -3.8964 -3.7665 0.0 0
M  V30 10 C -3.8964 -0.7674 0.0 0
M  V30 11 C -5.1952 -1.5231 0.0 0
M  V30 12 O -2.5976 -4.5104 0.0 0
M  V30 13 C -5.1952 -4.5222 0.0 0
M  V30 14 C -2.5976 -0.0236 0.0 0
M  V30 15 C -5.1952 -0.0118 0.0 0
M  V30 16 C -6.4941 -2.2788 0.0 0
M  V30 17 C -7.7929 -1.5349 0.0 0
M  V30 18 O -7.7929 -0.0354 0.0 0
M  V30 19 O -9.0917 -2.2906 0.0 0 CHG=-1
M  V30 END ATOM
M  V30 BEGIN BOND
M  V30 1 2 1 2
M  V30 2 1 2 3
M  V30 3 1 2 4
M  V30 4 1 3 5
M  V30 5 1 4 6
M  V30 6 1 5 7
M  V30 7 1 6 8
M  V30 8 1 8 9
M  V30 9 1 8 10 CFG=3
M  V30 10 1 8 11
M  V30 11 2 9 12
M  V30 12 1 9 13
M  V30 13 2 10 14
M  V30 14 1 10 15
M  V30 15 1 11 16
M  V30 16 1 16 17
M  V30 17 2 17 18
M  V30 18 1 17 19
M  V30 END BOND
M  V30 BEGIN COLLECTION
M  V30 MDLV30/STERAC1 ATOMS=(1 8)
M  V30 END COLLECTION
M  V30 END CTAB
M  END
>  <Molecule Name>
gamma-Acetyl-gamma-iso-propenylpimelic acid, mono-ethyl ester

>  <Activity Label>
0

>  <SMILES>
CCOC(CCC(CCC([O-])=O)(C(C)=C)C(C)=O)=O

>  <Molecular Formula>
C14H21O5

>  <InChIKey>
AULVSVQKTNXJBU-UHFFFAOYSA-M

>  <Repellency>
Inactive

>  <Reference DOI>
10.3390/toxics11100837

>  <Target Organism>
Not applied

$$$$
Compound 979
Actelion Java MolfileCreator 2.0

  0  0  0  0  0  0              0 V3000
M  V30 BEGIN CTAB
M  V30 COUNTS 19 18 0 0 0
M  V30 BEGIN ATOM
M  V30 1 O 0.0 0.0 0.0 0
M  V30 2 C -1.3012 -0.7452 0.0 0
M  V30 3 C 1.3012 -0.7452 0.0 0
M  V30 4 O -1.3012 -2.2475 0.0 0
M  V30 5 O -2.6024 0.0 0.0 0
M  V30 6 C 2.6024 0.0 0.0 0
M  V30 7 C 0.0 -2.9928 0.0 0
M  V30 8 C -3.9036 -0.7452 0.0 0
M  V30 9 C 3.9036 -0.7452 0.0 0
M  V30 10 C 0.0 -4.4951 0.0 0
M  V30 11 C -5.2049 0.0 0.0 0
M  V30 12 C 5.2049 0.0 0.0 0
M  V30 13 C 1.3012 -5.2404 0.0 0
M  V30 14 C -6.5061 -0.7452 0.0 0
M  V30 15 C 6.5061 -0.7452 0.0 0
M  V30 16 C 1.3012 -6.7427 0.0 0
M  V30 17 C -7.8073 0.0 0.0 0
M  V30 18 C 2.6024 -7.4879 0.0 0
M  V30 19 C -9.1086 -0.7452 0.0 0
M  V30 END ATOM
M  V30 BEGIN BOND
M  V30 1 1 1 2
M  V30 2 1 1 3
M  V30 3 1 2 4
M  V30 4 1 2 5
M  V30 5 1 3 6
M  V30 6 1 4 7
M  V30 7 1 5 8
M  V30 8 1 6 9
M  V30 9 1 7 10
M  V30 10 1 8 11
M  V30 11 1 9 12
M  V30 12 1 10 13
M  V30 13 1 11 14
M  V30 14 1 12 15
M  V30 15 1 13 16
M  V30 16 1 14 17
M  V30 17 1 16 18
M  V30 18 1 17 19
M  V30 END BOND
M  V30 END CTAB
M  END
>  <Molecule Name>
Orthoformic acid, triamyl ester

>  <Activity Label>
0

>  <SMILES>
CCCCCOC(OCCCCC)OCCCCC

>  <Molecular Formula>
C16H34O3

>  <InChIKey>
NRRGKWUTVHJHCS-UHFFFAOYSA-N

>  <Repellency>
Inactive

>  <Reference DOI>
10.3390/toxics11100837

>  <Target Organism>
Not applied

$$$$
Compound 980
Actelion Java MolfileCreator 2.0

  0  0  0  0  0  0              0 V3000
M  V30 BEGIN CTAB
M  V30 COUNTS 19 18 0 0 0
M  V30 BEGIN ATOM
M  V30 1 O 0.0 0.0 0.0 0
M  V30 2 C -1.2985 0.7555 0.0 0
M  V30 3 O -2.597 0.0 0.0 0
M  V30 4 C -1.2985 2.2547 0.0 0
M  V30 5 C -3.8956 0.7555 0.0 0
M  V30 6 O -1.2985 3.7539 0.0 0
M  V30 7 C 0.0 1.4992 0.0 0
M  V30 8 C -2.597 1.4992 0.0 0
M  V30 9 C -5.1941 0.0118 0.0 0
M  V30 10 C 1.2985 2.2429 0.0 0
M  V30 11 C -3.8956 2.2429 0.0 0
M  V30 12 O 1.2985 3.7421 0.0 0
M  V30 13 O 2.597 1.4874 0.0 0
M  V30 14 O -3.8956 3.7421 0.0 0
M  V30 15 O -5.1941 1.4874 0.0 0
M  V30 16 C 3.8956 2.2311 0.0 0
M  V30 17 C -6.4926 2.2311 0.0 0
M  V30 18 C 5.1941 1.4756 0.0 0
M  V30 19 C -7.7912 1.4756 0.0 0
M  V30 END ATOM
M  V30 BEGIN BOND
M  V30 1 2 1 2
M  V30 2 1 2 3
M  V30 3 1 2 4
M  V30 4 1 3 5
M  V30 5 1 4 6
M  V30 6 1 4 7
M  V30 7 1 4 8
M  V30 8 1 5 9
M  V30 9 1 7 10
M  V30 10 1 8 11
M  V30 11 2 10 12
M  V30 12 1 10 13
M  V30 13 2 11 14
M  V30 14 1 11 15
M  V30 15 1 13 16
M  V30 16 1 15 17
M  V30 17 1 16 18
M  V30 18 1 17 19
M  V30 END BOND
M  V30 END CTAB
M  END
>  <Molecule Name>
Citric acid, triethyl ester

>  <Activity Label>
0

>  <SMILES>
CCOC(CC(CC(OCC)=O)(C(OCC)=O)O)=O

>  <Molecular Formula>
C12H20O7

>  <InChIKey>
DOOTYTYQINUNNV-UHFFFAOYSA-N

>  <Repellency>
Inactive

>  <Reference DOI>
10.3390/toxics11100837

>  <Target Organism>
Not applied

$$$$
Compound 981
Actelion Java MolfileCreator 2.0

  0  0  0  0  0  0              0 V3000
M  V30 BEGIN CTAB
M  V30 COUNTS 19 18 0 0 0
M  V30 BEGIN ATOM
M  V30 1 O 0.0 0.0 0.0 0
M  V30 2 C -1.3004 -0.7475 0.0 0
M  V30 3 C 1.3004 -0.7475 0.0 0
M  V30 4 C -2.6009 0.0 0.0 0
M  V30 5 C 2.6009 0.0 0.0 0
M  V30 6 O -3.9014 -0.7475 0.0 0
M  V30 7 O 3.9014 -0.7475 0.0 0
M  V30 8 C -5.2018 0.0 0.0 0
M  V30 9 C 5.2018 0.0 0.0 0
M  V30 10 C -6.5023 -0.7475 0.0 0
M  V30 11 C 6.5023 -0.7475 0.0 0
M  V30 12 O -7.8028 0.0 0.0 0
M  V30 13 O 7.8028 0.0 0.0 0
M  V30 14 C -9.1032 -0.7475 0.0 0
M  V30 15 C 9.1032 -0.7475 0.0 0
M  V30 16 C -10.4037 0.0 0.0 0
M  V30 17 C 10.4037 0.0 0.0 0
M  V30 18 O -11.7042 -0.7475 0.0 0
M  V30 19 O 11.7042 -0.7475 0.0 0
M  V30 END ATOM
M  V30 BEGIN BOND
M  V30 1 1 1 2
M  V30 2 1 1 3
M  V30 3 1 2 4
M  V30 4 1 3 5
M  V30 5 1 4 6
M  V30 6 1 5 7
M  V30 7 1 6 8
M  V30 8 1 7 9
M  V30 9 1 8 10
M  V30 10 1 9 11
M  V30 11 1 10 12
M  V30 12 1 11 13
M  V30 13 1 12 14
M  V30 14 1 13 15
M  V30 15 1 14 16
M  V30 16 1 15 17
M  V30 17 1 16 18
M  V30 18 1 17 19
M  V30 END BOND
M  V30 END CTAB
M  END
>  <Molecule Name>
Hexaethylene glycol

>  <Activity Label>
0

>  <SMILES>
OCCOCCOCCOCCOCCOCCO

>  <Molecular Formula>
C12H26O7

>  <InChIKey>
IIRDTKBZINWQAW-UHFFFAOYSA-N

>  <Repellency>
Inactive

>  <Reference DOI>
10.3390/toxics11100837

>  <Target Organism>
Not applied

$$$$
Compound 982
Actelion Java MolfileCreator 2.0

  0  0  0  0  0  0              0 V3000
M  V30 BEGIN CTAB
M  V30 COUNTS 19 18 0 0 0
M  V30 BEGIN ATOM
M  V30 1 O 0.0 0.0 0.0 0
M  V30 2 C 0.0 1.4995 0.0 0
M  V30 3 O -1.2988 2.2434 0.0 0
M  V30 4 C 1.2988 2.2434 0.0 0
M  V30 5 C -2.5976 1.4877 0.0 0
M  V30 6 C 2.5976 1.4877 0.0 0
M  V30 7 C -3.8964 2.2316 0.0 0
M  V30 8 C 3.8964 2.2316 0.0 0
M  V30 9 C -5.1952 1.4759 0.0 0
M  V30 10 O 3.8964 3.7311 0.0 0
M  V30 11 N 5.1952 1.4759 0.0 0
M  V30 12 C 6.4941 2.2198 0.0 0
M  V30 13 C 5.1952 -0.0236 0.0 0
M  V30 14 C 7.7929 1.4641 0.0 0
M  V30 15 C 6.4941 -0.7792 0.0 0
M  V30 16 C 9.0917 2.2079 0.0 0
M  V30 17 C 6.4941 -2.2788 0.0 0
M  V30 18 C 10.3905 1.4523 0.0 0
M  V30 19 C 7.7929 -3.0345 0.0 0
M  V30 END ATOM
M  V30 BEGIN BOND
M  V30 1 2 1 2
M  V30 2 1 2 3
M  V30 3 1 2 4
M  V30 4 1 3 5
M  V30 5 1 4 6
M  V30 6 1 5 7
M  V30 7 1 6 8
M  V30 8 1 7 9
M  V30 9 2 8 10
M  V30 10 1 8 11
M  V30 11 1 11 12
M  V30 12 1 11 13
M  V30 13 1 12 14
M  V30 14 1 13 15
M  V30 15 1 14 16
M  V30 16 1 15 17
M  V30 17 1 16 18
M  V30 18 1 17 19
M  V30 END BOND
M  V30 END CTAB
M  END
>  <Molecule Name>
N,N-Di-n-butylsuccinamic acid, n-propyl ester

>  <Activity Label>
0

>  <SMILES>
CCCCN(CCCC)C(CCC(OCCC)=O)=O

>  <Molecular Formula>
C15H29NO3

>  <InChIKey>
LDHNZPOCFGRTTC-UHFFFAOYSA-N

>  <Repellency>
Inactive

>  <Reference DOI>
10.3390/toxics11100837

>  <Target Organism>
Not applied

$$$$
Compound 983
Actelion Java MolfileCreator 2.0

  0  0  0  0  0  0              0 V3000
M  V30 BEGIN CTAB
M  V30 COUNTS 19 21 0 0 0
M  V30 BEGIN ATOM
M  V30 1 O 0.0 0.0 0.0 0
M  V30 2 C 1.2989 -0.7557 0.0 0
M  V30 3 C -1.2989 -0.7439 0.0 0 CFG=2
M  V30 4 C 1.2989 -2.2555 0.0 0
M  V30 5 C 2.5979 -0.0118 0.0 0
M  V30 6 C 2.5979 -1.5115 0.0 0
M  V30 7 O -1.2989 -2.2437 0.0 0
M  V30 8 C -2.5979 0.0118 0.0 0
M  V30 9 C 0.0 -2.9995 0.0 0
M  V30 10 C 3.8969 -0.7557 0.0 0
M  V30 11 C 2.5979 -3.0113 0.0 0
M  V30 12 C -3.8969 -0.7321 0.0 0
M  V30 13 C -2.5979 1.5115 0.0 0
M  V30 14 C -5.1959 0.0236 0.0 0
M  V30 15 C -3.8969 2.2673 0.0 0
M  V30 16 O -6.6248 -0.4369 0.0 0
M  V30 17 C -5.1959 1.5233 0.0 0
M  V30 18 C -7.5105 0.7793 0.0 0
M  V30 19 O -6.6248 1.9839 0.0 0
M  V30 END ATOM
M  V30 BEGIN BOND
M  V30 1 1 1 2
M  V30 2 1 1 3
M  V30 3 1 2 4
M  V30 4 1 2 5
M  V30 5 1 2 6
M  V30 6 1 3 7
M  V30 7 1 3 8 CFG=3
M  V30 8 1 4 9
M  V30 9 1 5 10
M  V30 10 1 6 11
M  V30 11 2 8 12
M  V30 12 1 8 13
M  V30 13 1 12 14
M  V30 14 2 13 15
M  V30 15 1 14 16
M  V30 16 2 14 17
M  V30 17 1 16 18
M  V30 18 1 17 19
M  V30 19 1 7 9
M  V30 20 1 15 17
M  V30 21 1 18 19
M  V30 END BOND
M  V30 BEGIN COLLECTION
M  V30 MDLV30/STERAC1 ATOMS=(1 3)
M  V30 END COLLECTION
M  V30 END CTAB
M  END
>  <Molecule Name>
2-(3,4-Methylenedioxyphenyl)-4,4-diethyl-1,3-dioxane

>  <Activity Label>
0

>  <SMILES>
CCC1(CC)OC(c(cc2)cc3c2OCO3)OCC1

>  <Molecular Formula>
C15H20O4

>  <InChIKey>
ZJEGOXXKIBZZDN-UHFFFAOYSA-N

>  <Repellency>
Inactive

>  <Reference DOI>
10.3390/toxics11100837

>  <Target Organism>
Not applied

$$$$
Compound 984
Actelion Java MolfileCreator 2.0

  0  0  0  0  0  0              0 V3000
M  V30 BEGIN CTAB
M  V30 COUNTS 19 19 0 0 0
M  V30 BEGIN ATOM
M  V30 1 O 0.0 0.0 0.0 0
M  V30 2 C 0.0 -1.5012 0.0 0
M  V30 3 O 1.3003 -2.246 0.0 0
M  V30 4 C -1.3003 -2.246 0.0 0
M  V30 5 C 2.6006 -1.5012 0.0 0
M  V30 6 C -2.6006 -1.5012 0.0 0
M  V30 7 C -1.3003 -3.7473 0.0 0
M  V30 8 C 3.9009 -2.246 0.0 0
M  V30 9 O -2.6006 0.0 0.0 0
M  V30 10 O -3.9009 -2.246 0.0 0
M  V30 11 C -2.6006 -4.492 0.0 0
M  V30 12 C -5.2013 -1.5012 0.0 0
M  V30 13 C -2.6006 -5.9933 0.0 0
M  V30 14 C -6.5016 -2.246 0.0 0
M  V30 15 C -3.9009 -6.738 0.0 0
M  V30 16 C -1.3003 -6.738 0.0 0
M  V30 17 C -3.9009 -8.2393 0.0 0
M  V30 18 C -1.3003 -8.2393 0.0 0
M  V30 19 C -2.6006 -8.9959 0.0 0
M  V30 END ATOM
M  V30 BEGIN BOND
M  V30 1 2 1 2
M  V30 2 1 2 3
M  V30 3 1 2 4
M  V30 4 1 3 5
M  V30 5 1 4 6
M  V30 6 1 4 7
M  V30 7 1 5 8
M  V30 8 2 6 9
M  V30 9 1 6 10
M  V30 10 1 7 11
M  V30 11 1 10 12
M  V30 12 1 11 13
M  V30 13 1 12 14
M  V30 14 2 13 15
M  V30 15 1 13 16
M  V30 16 1 15 17
M  V30 17 2 16 18
M  V30 18 2 17 19
M  V30 19 1 18 19
M  V30 END BOND
M  V30 END CTAB
M  END
>  <Molecule Name>
Phenylethylmalonic acid, diethyl ester

>  <Activity Label>
0

>  <SMILES>
CCOC(C(CCc1ccccc1)C(OCC)=O)=O

>  <Molecular Formula>
C15H20O4

>  <InChIKey>
LMFLGETWXFOVMQ-UHFFFAOYSA-N

>  <Repellency>
Inactive

>  <Reference DOI>
10.3390/toxics11100837

>  <Target Organism>
Not applied

$$$$
Compound 985
Actelion Java MolfileCreator 2.0

  0  0  0  0  0  0              0 V3000
M  V30 BEGIN CTAB
M  V30 COUNTS 19 19 0 0 0
M  V30 BEGIN ATOM
M  V30 1 O 0.0 0.0 0.0 0
M  V30 2 C 0.0 -1.5011 0.0 0
M  V30 3 O -1.3001 -2.2457 0.0 0
M  V30 4 C 1.3001 -2.2457 0.0 0
M  V30 5 C -2.6003 -1.5011 0.0 0
M  V30 6 C 2.6003 -1.5011 0.0 0
M  V30 7 C -3.9005 -2.2457 0.0 0
M  V30 8 C 3.9005 -2.2457 0.0 0
M  V30 9 C -5.2007 -1.5011 0.0 0
M  V30 10 C 5.2007 -1.5011 0.0 0
M  V30 11 C 3.9005 -3.7469 0.0 0
M  V30 12 C -6.5009 -2.2457 0.0 0
M  V30 13 O 5.2007 0.0 0.0 0
M  V30 14 C 6.5009 -2.2457 0.0 0
M  V30 15 C 5.2007 -4.5033 0.0 0
M  V30 16 C 6.5009 0.7446 0.0 0
M  V30 17 O 7.8011 -1.4893 0.0 0
M  V30 18 C 6.5009 -3.7469 0.0 0
M  V30 19 C 7.8011 0.0118 0.0 0
M  V30 END ATOM
M  V30 BEGIN BOND
M  V30 1 2 1 2
M  V30 2 1 2 3
M  V30 3 1 2 4
M  V30 4 1 3 5
M  V30 5 2 4 6 CFG=2
M  V30 6 1 5 7
M  V30 7 1 6 8
M  V30 8 1 7 9
M  V30 9 2 8 10
M  V30 10 1 8 11
M  V30 11 1 9 12
M  V30 12 1 10 13
M  V30 13 1 10 14
M  V30 14 2 11 15
M  V30 15 1 13 16
M  V30 16 1 14 17
M  V30 17 2 14 18
M  V30 18 1 17 19
M  V30 19 1 15 18
M  V30 END BOND
M  V30 END CTAB
M  END
>  <Molecule Name>
2,3-Dimethoxycinnamic acid, n-butyl ester

>  <Activity Label>
0

>  <SMILES>
CCCCOC(C=Cc(cccc1OC)c1OC)=O

>  <Molecular Formula>
C15H20O4

>  <InChIKey>
RREBMPPLIADOAP-UHFFFAOYSA-N

>  <Repellency>
Inactive

>  <Reference DOI>
10.3390/toxics11100837

>  <Target Organism>
Not applied

$$$$
Compound 986
Actelion Java MolfileCreator 2.0

  0  0  0  0  0  0              0 V3000
M  V30 BEGIN CTAB
M  V30 COUNTS 19 19 0 0 0
M  V30 BEGIN ATOM
M  V30 1 O 0.0 0.0 0.0 0
M  V30 2 C 0.0 -1.498 0.0 0
M  V30 3 O -1.2974 -2.2529 0.0 0
M  V30 4 C 1.2974 -2.2529 0.0 0
M  V30 5 C -2.5949 -1.498 0.0 0
M  V30 6 C 2.5949 -1.498 0.0 0
M  V30 7 C 1.2974 -3.7509 0.0 0
M  V30 8 C -3.8924 -2.2529 0.0 0
M  V30 9 C 2.5949 0.0 0.0 0
M  V30 10 C 3.8924 -2.2411 0.0 0
M  V30 11 C 2.5949 -4.5058 0.0 0
M  V30 12 C -5.1899 -1.498 0.0 0
M  V30 13 O 1.2974 0.7431 0.0 0
M  V30 14 O 3.8924 0.7549 0.0 0
M  V30 15 C 3.8924 -3.7391 0.0 0
M  V30 16 C -6.4874 -2.2529 0.0 0
M  V30 17 C 3.8924 2.2529 0.0 0
M  V30 18 C -7.7849 -1.498 0.0 0
M  V30 19 C -9.0824 -2.2529 0.0 0
M  V30 END ATOM
M  V30 BEGIN BOND
M  V30 1 2 1 2
M  V30 2 1 2 3
M  V30 3 1 2 4
M  V30 4 1 3 5
M  V30 5 2 4 6
M  V30 6 1 4 7
M  V30 7 1 5 8
M  V30 8 1 6 9
M  V30 9 1 6 10
M  V30 10 2 7 11
M  V30 11 1 8 12
M  V30 12 2 9 13
M  V30 13 1 9 14
M  V30 14 2 10 15
M  V30 15 1 12 16
M  V30 16 1 14 17
M  V30 17 1 16 18
M  V30 18 1 18 19
M  V30 19 1 11 15
M  V30 END BOND
M  V30 END CTAB
M  END
>  <Molecule Name>
Phthalic acid, methyl n-hexyl ester

>  <Activity Label>
0

>  <SMILES>
CCCCCCOC(c(cccc1)c1C(OC)=O)=O

>  <Molecular Formula>
C15H20O4

>  <InChIKey>
XXLNRTDEQNSKEZ-UHFFFAOYSA-N

>  <Repellency>
Inactive

>  <Reference DOI>
10.3390/toxics11100837

>  <Target Organism>
Not applied

$$$$
Compound 987
Actelion Java MolfileCreator 2.0

  0  0  0  0  0  0              0 V3000
M  V30 BEGIN CTAB
M  V30 COUNTS 19 19 0 0 0
M  V30 BEGIN ATOM
M  V30 1 O 0.0 0.0 0.0 0
M  V30 2 C 0.0 -1.5001 0.0 0
M  V30 3 O 1.2993 -2.2561 0.0 0
M  V30 4 C -1.2993 -2.2561 0.0 0
M  V30 5 C 2.5987 -1.512 0.0 0
M  V30 6 C -2.5987 -1.512 0.0 0
M  V30 7 C 3.8981 -2.268 0.0 0
M  V30 8 C -2.5987 -0.0118 0.0 0
M  V30 9 C -3.8981 -2.268 0.0 0
M  V30 10 C -1.2993 0.7323 0.0 0
M  V30 11 C -3.8981 0.7441 0.0 0
M  V30 12 C -5.1975 -1.5238 0.0 0
M  V30 13 C -1.2993 2.2325 0.0 0
M  V30 14 C -3.8981 2.2443 0.0 0
M  V30 15 O -5.1975 -0.0236 0.0 0
M  V30 16 O -6.4968 -2.2798 0.0 0
M  V30 17 C -2.5987 2.9767 0.0 0
M  V30 18 C -7.7962 -1.5356 0.0 0
M  V30 19 C -9.0956 -2.2916 0.0 0
M  V30 END ATOM
M  V30 BEGIN BOND
M  V30 1 2 1 2
M  V30 2 1 2 3
M  V30 3 1 2 4
M  V30 4 1 3 5
M  V30 5 1 4 6
M  V30 6 1 5 7
M  V30 7 1 6 8
M  V30 8 1 6 9
M  V30 9 2 8 10
M  V30 10 1 8 11
M  V30 11 1 9 12
M  V30 12 1 10 13
M  V30 13 2 11 14
M  V30 14 2 12 15
M  V30 15 1 12 16
M  V30 16 2 13 17
M  V30 17 1 16 18
M  V30 18 1 18 19
M  V30 19 1 14 17
M  V30 END BOND
M  V30 END CTAB
M  END
>  <Molecule Name>
beta-Phenylglutaric acid, diethyl ester

>  <Activity Label>
0

>  <SMILES>
CCOC(CC(CC(OCC)=O)c1ccccc1)=O

>  <Molecular Formula>
C15H20O4

>  <InChIKey>
GSDRMAHJAKQAOZ-UHFFFAOYSA-N

>  <Repellency>
Inactive

>  <Reference DOI>
10.3390/toxics11100837

>  <Target Organism>
Not applied

$$$$
Compound 988
Actelion Java MolfileCreator 2.0

  0  0  0  0  0  0              0 V3000
M  V30 BEGIN CTAB
M  V30 COUNTS 19 19 0 0 0
M  V30 BEGIN ATOM
M  V30 1 O 0.0 0.0 0.0 0
M  V30 2 C 1.2999 -0.7563 0.0 0
M  V30 3 O 1.2999 -2.2571 0.0 0
M  V30 4 C 2.5998 -0.0118 0.0 0
M  V30 5 C 0.0 -3.0016 0.0 0
M  V30 6 C 2.5998 1.489 0.0 0
M  V30 7 C 3.8997 -0.7563 0.0 0
M  V30 8 C 0.0 -4.5024 0.0 0
M  V30 9 C 3.8997 2.2335 0.0 0
M  V30 10 C 1.2999 2.2335 0.0 0
M  V30 11 C 5.1997 -0.0118 0.0 0
M  V30 12 C -1.2999 -5.247 0.0 0
M  V30 13 C 5.1997 1.489 0.0 0
M  V30 14 C 1.2999 3.7343 0.0 0
M  V30 15 O 2.5998 4.4788 0.0 0
M  V30 16 O 0.0 4.4906 0.0 0
M  V30 17 C 0.0 5.9915 0.0 0
M  V30 18 C -1.2999 6.7478 0.0 0
M  V30 19 C -1.2999 8.2486 0.0 0
M  V30 END ATOM
M  V30 BEGIN BOND
M  V30 1 2 1 2
M  V30 2 1 2 3
M  V30 3 1 2 4
M  V30 4 1 3 5
M  V30 5 2 4 6
M  V30 6 1 4 7
M  V30 7 1 5 8
M  V30 8 1 6 9
M  V30 9 1 6 10
M  V30 10 2 7 11
M  V30 11 2 8 12
M  V30 12 2 9 13
M  V30 13 1 10 14
M  V30 14 2 14 15
M  V30 15 1 14 16
M  V30 16 1 16 17
M  V30 17 1 17 18
M  V30 18 2 18 19
M  V30 19 1 11 13
M  V30 END BOND
M  V30 END CTAB
M  END
>  <Molecule Name>
Homophthalic acid, diallyl ester

>  <Activity Label>
0

>  <SMILES>
C=CCOC(Cc(cccc1)c1C(OCC=C)=O)=O

>  <Molecular Formula>
C15H16O4

>  <InChIKey>
ZCUCNBRBNGDJAZ-UHFFFAOYSA-N

>  <Repellency>
Inactive

>  <Reference DOI>
10.3390/toxics11100837

>  <Target Organism>
Not applied

$$$$
Compound 989
Actelion Java MolfileCreator 2.0

  0  0  0  0  0  0              0 V3000
M  V30 BEGIN CTAB
M  V30 COUNTS 19 19 0 0 0
M  V30 BEGIN ATOM
M  V30 1 O 0.0 0.0 0.0 0
M  V30 2 C 0.0 1.5009 0.0 0
M  V30 3 O -1.3 2.2455 0.0 0
M  V30 4 C 1.3 2.2455 0.0 0
M  V30 5 C -2.6001 1.5009 0.0 0
M  V30 6 C 1.3 3.7465 0.0 0
M  V30 7 C 2.6001 1.5009 0.0 0
M  V30 8 C -3.9001 2.2455 0.0 0
M  V30 9 C 2.6001 4.4911 0.0 0
M  V30 10 C 0.0 4.4911 0.0 0
M  V30 11 C 3.9001 2.2455 0.0 0
M  V30 12 C -5.2002 1.4891 0.0 0
M  V30 13 C 3.9001 3.7465 0.0 0
M  V30 14 C 0.0 5.992 0.0 0
M  V30 15 O 1.3 6.7366 0.0 0
M  V30 16 O -1.3 6.7484 0.0 0
M  V30 17 C -1.3 8.2494 0.0 0
M  V30 18 C -2.6001 9.0058 0.0 0
M  V30 19 C -2.6001 10.5068 0.0 0
M  V30 END ATOM
M  V30 BEGIN BOND
M  V30 1 2 1 2
M  V30 2 1 2 3
M  V30 3 1 2 4
M  V30 4 1 3 5
M  V30 5 2 4 6
M  V30 6 1 4 7
M  V30 7 1 5 8
M  V30 8 1 6 9
M  V30 9 1 6 10
M  V30 10 2 7 11
M  V30 11 1 8 12
M  V30 12 2 9 13
M  V30 13 1 10 14
M  V30 14 2 14 15
M  V30 15 1 14 16
M  V30 16 1 16 17
M  V30 17 1 17 18
M  V30 18 1 18 19
M  V30 19 1 11 13
M  V30 END BOND
M  V30 END CTAB
M  END
>  <Molecule Name>
Homophthalic acid, di-n-propyl ester

>  <Activity Label>
0

>  <SMILES>
CCCOC(Cc(cccc1)c1C(OCCC)=O)=O

>  <Molecular Formula>
C15H20O4

>  <InChIKey>
QNENAGCYMOTYGQ-UHFFFAOYSA-N

>  <Repellency>
Inactive

>  <Reference DOI>
10.3390/toxics11100837

>  <Target Organism>
Not applied

$$$$
Compound 990
Actelion Java MolfileCreator 2.0

  0  0  0  0  0  0              0 V3000
M  V30 BEGIN CTAB
M  V30 COUNTS 19 19 0 0 0
M  V30 BEGIN ATOM
M  V30 1 O 0.0 0.0 0.0 0
M  V30 2 C 0.0 1.4998 0.0 0
M  V30 3 O 1.2991 2.2439 0.0 0
M  V30 4 C -1.2991 2.2439 0.0 0 CFG=1
M  V30 5 C 2.5982 1.488 0.0 0
M  V30 6 O -1.2991 3.7438 0.0 0
M  V30 7 C -2.5982 1.488 0.0 0
M  V30 8 C 3.8973 2.2321 0.0 0
M  V30 9 C -2.5982 4.4996 0.0 0
M  V30 10 C -3.8973 2.2321 0.0 0
M  V30 11 C -2.5982 5.9995 0.0 0
M  V30 12 C -3.8973 3.7556 0.0 0
M  V30 13 C -5.1964 1.4762 0.0 0
M  V30 14 C -3.8973 6.7553 0.0 0
M  V30 15 C -5.1964 4.5114 0.0 0
M  V30 16 C -6.4955 2.2202 0.0 0
M  V30 17 O -3.8973 8.2552 0.0 0
M  V30 18 C -5.1964 6.0113 0.0 0
M  V30 19 C -7.7946 1.4644 0.0 0
M  V30 END ATOM
M  V30 BEGIN BOND
M  V30 1 2 1 2
M  V30 2 1 2 3
M  V30 3 1 2 4
M  V30 4 1 3 5
M  V30 5 1 4 6 CFG=3
M  V30 6 1 4 7
M  V30 7 1 5 8
M  V30 8 1 6 9
M  V30 9 1 7 10
M  V30 10 2 9 11
M  V30 11 1 9 12
M  V30 12 1 10 13
M  V30 13 1 11 14
M  V30 14 2 12 15
M  V30 15 1 13 16
M  V30 16 1 14 17
M  V30 17 2 14 18
M  V30 18 1 16 19
M  V30 19 1 15 18
M  V30 END BOND
M  V30 BEGIN COLLECTION
M  V30 MDLV30/STERAC1 ATOMS=(1 4)
M  V30 END COLLECTION
M  V30 END CTAB
M  END
>  <Molecule Name>
3-(1'-Carboethoxyhexoxy)phenol

>  <Activity Label>
0

>  <SMILES>
CCCCCC(C(OCC)=O)Oc1cc(O)ccc1

>  <Molecular Formula>
C15H22O4

>  <InChIKey>
RXMYNCICUPTFQQ-UHFFFAOYSA-N

>  <Repellency>
Inactive

>  <Reference DOI>
10.3390/toxics11100837

>  <Target Organism>
Not applied

$$$$
Compound 991
Actelion Java MolfileCreator 2.0

  0  0  0  0  0  0              0 V3000
M  V30 BEGIN CTAB
M  V30 COUNTS 19 19 0 0 0
M  V30 BEGIN ATOM
M  V30 1 O 0.0 0.0 0.0 0
M  V30 2 C 0.0 1.5014 0.0 0
M  V30 3 O -1.3004 2.2462 0.0 0
M  V30 4 C 1.3004 2.2462 0.0 0 CFG=1
M  V30 5 C -2.6009 1.5014 0.0 0
M  V30 6 O 2.6009 1.5014 0.0 0
M  V30 7 C 1.3004 3.7476 0.0 0
M  V30 8 C -3.9013 2.258 0.0 0
M  V30 9 C -2.6009 0.0 0.0 0
M  V30 10 C 3.9013 2.2462 0.0 0
M  V30 11 C -5.2018 1.5132 0.0 0
M  V30 12 C -3.9013 -0.7448 0.0 0
M  V30 13 O 3.9013 3.7476 0.0 0
M  V30 14 C 5.2018 1.5014 0.0 0
M  V30 15 C -5.2018 0.0118 0.0 0
M  V30 16 C -6.5022 -0.7329 0.0 0
M  V30 17 C -5.7574 -2.0334 0.0 0
M  V30 18 C -7.8027 -1.4777 0.0 0
M  V30 19 C -7.247 0.5674 0.0 0
M  V30 END ATOM
M  V30 BEGIN BOND
M  V30 1 2 1 2
M  V30 2 1 2 3
M  V30 3 1 2 4
M  V30 4 1 3 5
M  V30 5 1 4 6
M  V30 6 1 4 7 CFG=3
M  V30 7 2 5 8
M  V30 8 1 5 9
M  V30 9 1 6 10
M  V30 10 1 8 11
M  V30 11 2 9 12
M  V30 12 2 10 13
M  V30 13 1 10 14
M  V30 14 2 11 15
M  V30 15 1 15 16
M  V30 16 1 16 17
M  V30 17 1 16 18
M  V30 18 1 16 19
M  V30 19 1 12 15
M  V30 END BOND
M  V30 BEGIN COLLECTION
M  V30 MDLV30/STERAC1 ATOMS=(1 4)
M  V30 END COLLECTION
M  V30 END CTAB
M  END
>  <Molecule Name>
alpha-Acetoxypropionic acid, p-tert-butylphenyl ester

>  <Activity Label>
0

>  <SMILES>
CC(C(Oc1ccc(C(C)(C)C)cc1)=O)OC(C)=O

>  <Molecular Formula>
C15H20O4

>  <InChIKey>
WGSFDGRWZQDFGI-UHFFFAOYSA-N

>  <Repellency>
Inactive

>  <Reference DOI>
10.3390/toxics11100837

>  <Target Organism>
Not applied

$$$$
Compound 992
Actelion Java MolfileCreator 2.0

  0  0  0  0  0  0              0 V3000
M  V30 BEGIN CTAB
M  V30 COUNTS 19 19 0 0 0
M  V30 BEGIN ATOM
M  V30 1 O 0.0 0.0 0.0 0
M  V30 2 C -1.2989 -0.7557 0.0 0
M  V30 3 C 1.2989 -0.7557 0.0 0
M  V30 4 O -2.5979 -0.0118 0.0 0
M  V30 5 C -1.2989 -2.2554 0.0 0
M  V30 6 C 2.5979 -0.0118 0.0 0
M  V30 7 C -3.8969 -0.7675 0.0 0
M  V30 8 C -2.5979 -2.9994 0.0 0
M  V30 9 C 0.0 -3.0112 0.0 0
M  V30 10 C 3.8969 -0.7675 0.0 0
M  V30 11 C -5.1958 -0.0236 0.0 0
M  V30 12 O -3.8969 -2.2436 0.0 0
M  V30 13 C -2.5979 -4.4991 0.0 0
M  V30 14 C 0.0 -4.5109 0.0 0
M  V30 15 C -6.4948 -0.7793 0.0 0
M  V30 16 C -5.1958 -2.9876 0.0 0
M  V30 17 O -3.8969 -5.2431 0.0 0
M  V30 18 C -1.2989 -5.2549 0.0 0
M  V30 19 C -3.8969 -6.7428 0.0 0
M  V30 END ATOM
M  V30 BEGIN BOND
M  V30 1 1 1 2
M  V30 2 1 1 3
M  V30 3 1 2 4
M  V30 4 1 2 5
M  V30 5 1 3 6
M  V30 6 1 4 7
M  V30 7 2 5 8
M  V30 8 1 5 9
M  V30 9 1 6 10
M  V30 10 1 7 11
M  V30 11 1 8 12
M  V30 12 1 8 13
M  V30 13 2 9 14
M  V30 14 1 11 15
M  V30 15 1 12 16
M  V30 16 1 13 17
M  V30 17 2 13 18
M  V30 18 1 17 19
M  V30 19 1 14 18
M  V30 END BOND
M  V30 END CTAB
M  END
>  <Molecule Name>
2,3-Dimethoxybenzaldehyde-di-n-propyl acetal

>  <Activity Label>
0

>  <SMILES>
CCCOC(c(cccc1OC)c1OC)OCCC

>  <Molecular Formula>
C15H24O4

>  <InChIKey>
NTSOJSKNKCJPGO-UHFFFAOYSA-N

>  <Repellency>
Inactive

>  <Reference DOI>
10.3390/toxics11100837

>  <Target Organism>
Not applied

$$$$
Compound 993
Actelion Java MolfileCreator 2.0

  0  0  0  0  0  0              0 V3000
M  V30 BEGIN CTAB
M  V30 COUNTS 19 19 0 0 0
M  V30 BEGIN ATOM
M  V30 1 O 0.0 0.0 0.0 0
M  V30 2 C 0.0 -1.4994 0.0 0
M  V30 3 O -1.2986 -2.255 0.0 0
M  V30 4 C 1.2986 -2.255 0.0 0
M  V30 5 C -2.5973 -1.5112 0.0 0
M  V30 6 C 2.5973 -1.5112 0.0 0
M  V30 7 C -3.896 -2.2668 0.0 0 CFG=2
M  V30 8 C 3.896 -2.2668 0.0 0
M  V30 9 C -5.1947 -1.523 0.0 0
M  V30 10 C -3.896 -3.7662 0.0 0
M  V30 11 C 3.896 -3.7662 0.0 0
M  V30 12 C 5.1947 -1.523 0.0 0
M  V30 13 C -6.4934 -2.2786 0.0 0
M  V30 14 C -2.5973 -4.51 0.0 0
M  V30 15 C 5.1947 -4.5218 0.0 0
M  V30 16 C 6.4934 -2.2668 0.0 0
M  V30 17 C -7.7921 -1.5348 0.0 0
M  V30 18 C 6.4934 -3.778 0.0 0
M  V30 19 C -9.0908 -2.2904 0.0 0
M  V30 END ATOM
M  V30 BEGIN BOND
M  V30 1 2 1 2
M  V30 2 1 2 3
M  V30 3 1 2 4
M  V30 4 1 3 5
M  V30 5 2 4 6 CFG=2
M  V30 6 1 7 5 CFG=1
M  V30 7 1 6 8
M  V30 8 1 7 9
M  V30 9 1 7 10
M  V30 10 2 8 11
M  V30 11 1 8 12
M  V30 12 1 9 13
M  V30 13 1 10 14
M  V30 14 1 11 15
M  V30 15 2 12 16
M  V30 16 1 13 17
M  V30 17 2 15 18
M  V30 18 1 17 19
M  V30 19 1 16 18
M  V30 END BOND
M  V30 BEGIN COLLECTION
M  V30 MDLV30/STERAC1 ATOMS=(1 7)
M  V30 END COLLECTION
M  V30 END CTAB
M  END
>  <Molecule Name>
Cinnamic acid, 2-ethylhexyl ester

>  <Activity Label>
0

>  <SMILES>
CCCCC(CC)COC(C=Cc1ccccc1)=O

>  <Molecular Formula>
C17H24O2

>  <InChIKey>
OUCGLXKNITVPJS-UHFFFAOYSA-N

>  <Repellency>
Inactive

>  <Reference DOI>
10.3390/toxics11100837

>  <Target Organism>
Not applied

$$$$
Compound 994
Actelion Java MolfileCreator 2.0

  0  0  0  0  0  0              0 V3000
M  V30 BEGIN CTAB
M  V30 COUNTS 19 19 0 0 0
M  V30 BEGIN ATOM
M  V30 1 O 0.0 0.0 0.0 0
M  V30 2 C 0.0 -1.5017 0.0 0
M  V30 3 O -1.3007 -2.2466 0.0 0
M  V30 4 C 1.3007 -2.2466 0.0 0
M  V30 5 C -2.6014 -1.5017 0.0 0
M  V30 6 C 1.3007 -3.7484 0.0 0
M  V30 7 C 2.6014 -1.5017 0.0 0
M  V30 8 C -3.9021 -2.2466 0.0 0
M  V30 9 C 2.6014 -4.5051 0.0 0
M  V30 10 C 3.9021 -2.2585 0.0 0
M  V30 11 C -5.2028 -1.5017 0.0 0
M  V30 12 C 3.9021 -3.7602 0.0 0
M  V30 13 C -6.5035 -2.2466 0.0 0
M  V30 14 C -7.8042 -1.5017 0.0 0
M  V30 15 C -9.1049 -2.2466 0.0 0
M  V30 16 C -10.4057 -1.5017 0.0 0
M  V30 17 C -11.7064 -2.2466 0.0 0
M  V30 18 C -13.0071 -1.5017 0.0 0
M  V30 19 C -14.3078 -2.2466 0.0 0
M  V30 END ATOM
M  V30 BEGIN BOND
M  V30 1 2 1 2
M  V30 2 1 2 3
M  V30 3 1 2 4
M  V30 4 1 3 5
M  V30 5 2 4 6
M  V30 6 1 4 7
M  V30 7 1 5 8
M  V30 8 1 6 9
M  V30 9 2 7 10
M  V30 10 1 8 11
M  V30 11 2 9 12
M  V30 12 1 11 13
M  V30 13 1 13 14
M  V30 14 1 14 15
M  V30 15 1 15 16
M  V30 16 1 16 17
M  V30 17 1 17 18
M  V30 18 1 18 19
M  V30 19 1 10 12
M  V30 END BOND
M  V30 END CTAB
M  END
>  <Molecule Name>
Benzoic acid, n-decyl ester

>  <Activity Label>
0

>  <SMILES>
CCCCCCCCCCOC(c1ccccc1)=O

>  <Molecular Formula>
C17H26O2

>  <InChIKey>
CUSUFTNOPPMGBK-UHFFFAOYSA-N

>  <Repellency>
Inactive

>  <Reference DOI>
10.3390/toxics11100837

>  <Target Organism>
Not applied

$$$$
Compound 995
Actelion Java MolfileCreator 2.0

  0  0  0  0  0  0              0 V3000
M  V30 BEGIN CTAB
M  V30 COUNTS 19 19 0 0 0
M  V30 BEGIN ATOM
M  V30 1 O 0.0 0.0 0.0 0
M  V30 2 C 0.0 1.5009 0.0 0
M  V30 3 O 1.3 2.2455 0.0 0
M  V30 4 C -1.3 2.2455 0.0 0 CFG=2
M  V30 5 C 2.6 1.5009 0.0 0
M  V30 6 C -1.3 3.7464 0.0 0
M  V30 7 C -2.6 1.5009 0.0 0
M  V30 8 C 0.0 4.491 0.0 0
M  V30 9 C -3.9001 2.2455 0.0 0
M  V30 10 C 1.3 3.7346 0.0 0
M  V30 11 C 0.0 5.992 0.0 0
M  V30 12 C -5.2001 1.5009 0.0 0
M  V30 13 C 2.6 4.4792 0.0 0
M  V30 14 C 1.3 6.7484 0.0 0
M  V30 15 C -6.5002 2.2455 0.0 0
M  V30 16 C 2.6 5.9801 0.0 0
M  V30 17 C -7.8002 1.5009 0.0 0
M  V30 18 C -9.1002 2.2455 0.0 0
M  V30 19 C -10.4003 1.5009 0.0 0
M  V30 END ATOM
M  V30 BEGIN BOND
M  V30 1 2 1 2
M  V30 2 1 2 3
M  V30 3 1 2 4
M  V30 4 1 3 5
M  V30 5 1 4 6 CFG=1
M  V30 6 1 4 7
M  V30 7 1 6 8
M  V30 8 1 7 9
M  V30 9 2 8 10
M  V30 10 1 8 11
M  V30 11 1 9 12
M  V30 12 1 10 13
M  V30 13 2 11 14
M  V30 14 1 12 15
M  V30 15 2 13 16
M  V30 16 1 15 17
M  V30 17 1 17 18
M  V30 18 1 18 19
M  V30 19 1 14 16
M  V30 END BOND
M  V30 BEGIN COLLECTION
M  V30 MDLV30/STERAC1 ATOMS=(1 4)
M  V30 END COLLECTION
M  V30 END CTAB
M  END
>  <Molecule Name>
alpha-Benzylpelargonic acid, methyl ester

>  <Activity Label>
0

>  <SMILES>
CCCCCCCC(Cc1ccccc1)C(OC)=O

>  <Molecular Formula>
C17H26O2

>  <InChIKey>
DQKWQVYJSLRCTI-UHFFFAOYSA-N

>  <Repellency>
Inactive

>  <Reference DOI>
10.3390/toxics11100837

>  <Target Organism>
Not applied

$$$$
Compound 996
Actelion Java MolfileCreator 2.0

  0  0  0  0  0  0              0 V3000
M  V30 BEGIN CTAB
M  V30 COUNTS 19 19 0 0 0
M  V30 BEGIN ATOM
M  V30 1 Cl 0.0 0.0 0.0 0
M  V30 2 C 1.3008 -0.7568 0.0 0
M  V30 3 C 1.3008 -2.2587 0.0 0
M  V30 4 C 2.6017 -0.0118 0.0 0
M  V30 5 O 0.0 -3.0037 0.0 0
M  V30 6 C 2.6017 -3.0037 0.0 0
M  V30 7 C 3.9025 -0.7568 0.0 0
M  V30 8 C -1.3008 -2.2587 0.0 0
M  V30 9 C 3.9025 -2.2587 0.0 0
M  V30 10 C -2.6017 -3.0037 0.0 0
M  V30 11 C 5.2034 -3.0037 0.0 0
M  V30 12 O -3.9025 -2.2587 0.0 0
M  V30 13 C 5.2034 -4.5056 0.0 0
M  V30 14 C 6.7053 -3.0037 0.0 0
M  V30 15 C 5.9484 -1.7029 0.0 0
M  V30 16 C -5.2034 -3.0037 0.0 0
M  V30 17 C 6.5042 -5.2507 0.0 0
M  V30 18 C -6.5042 -2.2587 0.0 0
M  V30 19 Cl -7.8051 -3.0037 0.0 0
M  V30 END ATOM
M  V30 BEGIN BOND
M  V30 1 1 1 2
M  V30 2 2 2 3
M  V30 3 1 2 4
M  V30 4 1 3 5
M  V30 5 1 3 6
M  V30 6 2 4 7
M  V30 7 1 5 8
M  V30 8 2 6 9
M  V30 9 1 8 10
M  V30 10 1 9 11
M  V30 11 1 10 12
M  V30 12 1 11 13
M  V30 13 1 11 14
M  V30 14 1 11 15
M  V30 15 1 12 16
M  V30 16 1 13 17
M  V30 17 1 16 18
M  V30 18 1 18 19
M  V30 19 1 7 9
M  V30 END BOND
M  V30 END CTAB
M  END
>  <Molecule Name>
2-Chloro-5-tert-amylphenoxyethoxyethyl chloride

>  <Activity Label>
0

>  <SMILES>
CCC(C)(C)c(cc1)cc(OCCOCCCl)c1Cl

>  <Molecular Formula>
C15H22O2Cl2

>  <InChIKey>
SAJMQXYUUOERIM-UHFFFAOYSA-N

>  <Repellency>
Inactive

>  <Reference DOI>
10.3390/toxics11100837

>  <Target Organism>
Not applied

$$$$
Compound 997
Actelion Java MolfileCreator 2.0

  0  0  0  0  0  0              0 V3000
M  V30 BEGIN CTAB
M  V30 COUNTS 19 19 0 0 0
M  V30 BEGIN ATOM
M  V30 1 O 0.0 0.0 0.0 0
M  V30 2 C 1.2968 0.7545 0.0 0
M  V30 3 C -1.2968 0.7545 0.0 0
M  V30 4 C 2.5936 0.0 0.0 0
M  V30 5 C 1.2968 2.2517 0.0 0
M  V30 6 C -2.5936 0.0 0.0 0
M  V30 7 C 3.8904 0.7427 0.0 0
M  V30 8 C 2.5936 3.0062 0.0 0
M  V30 9 C -3.8904 0.7545 0.0 0
M  V30 10 C 3.8904 2.2399 0.0 0
M  V30 11 C -5.1872 0.0 0.0 0
M  V30 12 C -6.484 0.7545 0.0 0
M  V30 13 C -7.7808 0.0 0.0 0
M  V30 14 C -9.0776 0.7545 0.0 0
M  V30 15 C -10.3744 0.0 0.0 0
M  V30 16 C -11.6712 0.7545 0.0 0
M  V30 17 C -12.968 0.0 0.0 0
M  V30 18 C -14.2648 0.7545 0.0 0
M  V30 19 C -15.5616 0.0 0.0 0
M  V30 END ATOM
M  V30 BEGIN BOND
M  V30 1 1 1 2
M  V30 2 1 1 3
M  V30 3 2 2 4
M  V30 4 1 2 5
M  V30 5 1 3 6
M  V30 6 1 4 7
M  V30 7 2 5 8
M  V30 8 1 6 9
M  V30 9 2 7 10
M  V30 10 1 9 11
M  V30 11 1 11 12
M  V30 12 1 12 13
M  V30 13 1 13 14
M  V30 14 1 14 15
M  V30 15 1 15 16
M  V30 16 1 16 17
M  V30 17 1 17 18
M  V30 18 1 18 19
M  V30 19 1 8 10
M  V30 END BOND
M  V30 END CTAB
M  END
>  <Molecule Name>
Dodecyl phenyl ether

>  <Activity Label>
0

>  <SMILES>
CCCCCCCCCCCCOc1ccccc1

>  <Molecular Formula>
C18H30O

>  <InChIKey>
CRBREIOFEDVXGE-UHFFFAOYSA-N

>  <Repellency>
Inactive

>  <Reference DOI>
10.3390/toxics11100837

>  <Target Organism>
Not applied

$$$$
Compound 998
Actelion Java MolfileCreator 2.0

  0  0  0  0  0  0              0 V3000
M  V30 BEGIN CTAB
M  V30 COUNTS 19 19 0 0 0
M  V30 BEGIN ATOM
M  V30 1 O 0.0 0.0 0.0 0
M  V30 2 C 1.2968 0.7545 0.0 0
M  V30 3 C -1.2968 0.7545 0.0 0
M  V30 4 C 2.5936 0.0 0.0 0
M  V30 5 C 1.2968 2.2517 0.0 0
M  V30 6 C -2.5936 0.0 0.0 0
M  V30 7 C 3.8904 0.7427 0.0 0
M  V30 8 C 2.5936 3.0062 0.0 0
M  V30 9 C -3.8904 0.7545 0.0 0
M  V30 10 C 3.8904 2.2399 0.0 0
M  V30 11 C -5.1872 0.0 0.0 0
M  V30 12 C -6.484 0.7545 0.0 0
M  V30 13 C -7.7808 0.0 0.0 0
M  V30 14 C -9.0776 0.7545 0.0 0
M  V30 15 C -10.3744 0.0 0.0 0
M  V30 16 C -11.6712 0.7545 0.0 0
M  V30 17 C -12.968 0.0 0.0 0
M  V30 18 C -14.2648 0.7545 0.0 0
M  V30 19 C -15.5616 0.0 0.0 0
M  V30 END ATOM
M  V30 BEGIN BOND
M  V30 1 1 1 2
M  V30 2 1 1 3
M  V30 3 2 2 4
M  V30 4 1 2 5
M  V30 5 1 3 6
M  V30 6 1 4 7
M  V30 7 1 5 8
M  V30 8 1 6 9
M  V30 9 1 7 10
M  V30 10 1 9 11
M  V30 11 1 11 12
M  V30 12 1 12 13
M  V30 13 1 13 14
M  V30 14 1 14 15
M  V30 15 1 15 16
M  V30 16 1 16 17
M  V30 17 1 17 18
M  V30 18 1 18 19
M  V30 19 1 8 10
M  V30 END BOND
M  V30 END CTAB
M  END
>  <Molecule Name>
Dodecyl 1-cyclohexenyl ether

>  <Activity Label>
0

>  <SMILES>
CCCCCCCCCCCCOC1=CCCCC1

>  <Molecular Formula>
C18H34O

>  <InChIKey>
WPDMDMFATKDWEI-UHFFFAOYSA-N

>  <Repellency>
Inactive

>  <Reference DOI>
10.3390/toxics11100837

>  <Target Organism>
Not applied

$$$$
Compound 999
Actelion Java MolfileCreator 2.0

  0  0  0  0  0  0              0 V3000
M  V30 BEGIN CTAB
M  V30 COUNTS 19 19 0 0 0
M  V30 BEGIN ATOM
M  V30 1 Cl 0.0 0.0 0.0 0
M  V30 2 C 1.2992 0.7559 0.0 0
M  V30 3 C 1.2992 2.2559 0.0 0
M  V30 4 C 2.5984 3.0 0.0 0
M  V30 5 O 2.5984 4.5 0.0 0
M  V30 6 C 3.8977 5.2441 0.0 0
M  V30 7 C 3.8977 6.7442 0.0 0
M  V30 8 C 5.1969 4.5 0.0 0
M  V30 9 C 5.1969 7.5001 0.0 0
M  V30 10 C 2.5984 7.4883 0.0 0
M  V30 11 C 6.4961 5.256 0.0 0
M  V30 12 C 6.4961 6.756 0.0 0
M  V30 13 C 1.8543 6.189 0.0 0
M  V30 14 C 1.2992 8.2324 0.0 0
M  V30 15 C 3.3425 8.7875 0.0 0
M  V30 16 C 7.7954 7.5119 0.0 0
M  V30 17 C 7.0395 8.8111 0.0 0
M  V30 18 C 9.0946 8.2678 0.0 0
M  V30 19 C 8.5513 6.2127 0.0 0
M  V30 END ATOM
M  V30 BEGIN BOND
M  V30 1 1 1 2
M  V30 2 1 2 3
M  V30 3 1 3 4
M  V30 4 1 4 5
M  V30 5 1 5 6
M  V30 6 2 6 7
M  V30 7 1 6 8
M  V30 8 1 7 9
M  V30 9 1 7 10
M  V30 10 2 8 11
M  V30 11 2 9 12
M  V30 12 1 10 13
M  V30 13 1 10 14
M  V30 14 1 10 15
M  V30 15 1 12 16
M  V30 16 1 16 17
M  V30 17 1 16 18
M  V30 18 1 16 19
M  V30 19 1 11 12
M  V30 END BOND
M  V30 END CTAB
M  END
>  <Molecule Name>
3-Chloropropyl 2,4-di-tert-butylphenyl ether

>  <Activity Label>
0

>  <SMILES>
CC(C)(C)c(cc1)cc(C(C)(C)C)c1OCCCCl

>  <Molecular Formula>
C17H27OCl

>  <InChIKey>
WOZQMGMQRXJHGN-UHFFFAOYSA-N

>  <Repellency>
Inactive

>  <Reference DOI>
10.3390/toxics11100837

>  <Target Organism>
Not applied

$$$$
Compound 1000
Actelion Java MolfileCreator 2.0

  0  0  0  0  0  0              0 V3000
M  V30 BEGIN CTAB
M  V30 COUNTS 19 19 0 0 0
M  V30 BEGIN ATOM
M  V30 1 O 0.0 0.0 0.0 0
M  V30 2 C 0.0 -1.5 0.0 0
M  V30 3 O -1.2992 -2.2559 0.0 0
M  V30 4 C 1.2992 -2.2559 0.0 0
M  V30 5 C -2.5985 -1.5118 0.0 0
M  V30 6 C 2.5985 -1.5118 0.0 0
M  V30 7 C -3.8977 -2.2678 0.0 0 CFG=2
M  V30 8 C 3.8977 -2.2678 0.0 0
M  V30 9 O -4.0513 -3.756 0.0 0
M  V30 10 C -5.2679 -1.6536 0.0 0
M  V30 11 C 5.197 -1.5236 0.0 0
M  V30 12 C -5.5159 -4.0631 0.0 0
M  V30 13 C -6.2718 -2.7638 0.0 0
M  V30 14 C 6.4963 -2.2796 0.0 0
M  V30 15 C 7.7955 -1.5354 0.0 0
M  V30 16 C 9.0948 -2.2914 0.0 0
M  V30 17 C 10.394 -1.5473 0.0 0
M  V30 18 C 11.6933 -2.3032 0.0 0
M  V30 19 C 12.9926 -1.5591 0.0 0
M  V30 END ATOM
M  V30 BEGIN BOND
M  V30 1 2 1 2
M  V30 2 1 2 3
M  V30 3 1 2 4
M  V30 4 1 3 5
M  V30 5 1 4 6
M  V30 6 1 7 5 CFG=3
M  V30 7 1 6 8
M  V30 8 1 7 9
M  V30 9 1 7 10
M  V30 10 1 8 11
M  V30 11 1 9 12
M  V30 12 1 10 13
M  V30 13 1 11 14
M  V30 14 1 14 15
M  V30 15 1 15 16
M  V30 16 1 16 17
M  V30 17 1 17 18
M  V30 18 2 18 19
M  V30 19 1 12 13
M  V30 END BOND
M  V30 BEGIN COLLECTION
M  V30 MDLV30/STERAC1 ATOMS=(1 7)
M  V30 END COLLECTION
M  V30 END CTAB
M  END
>  <Molecule Name>
Undecylenic acid, tetrahydrofurfuryl ester

>  <Activity Label>
0

>  <SMILES>
C=CCCCCCCCCC(OCC1OCCC1)=O

>  <Molecular Formula>
C16H28O3

>  <InChIKey>
ZOCYUHCWFUUYEJ-UHFFFAOYSA-N

>  <Repellency>
Inactive

>  <Reference DOI>
10.3390/toxics11100837

>  <Target Organism>
Not applied

$$$$
Compound 1001
Actelion Java MolfileCreator 2.0

  0  0  0  0  0  0              0 V3000
M  V30 BEGIN CTAB
M  V30 COUNTS 19 19 0 0 0
M  V30 BEGIN ATOM
M  V30 1 O 0.0 0.0 0.0 0
M  V30 2 C 0.0 -1.499 0.0 0
M  V30 3 O -1.2984 -2.2545 0.0 0
M  V30 4 C 1.2984 -2.2545 0.0 0
M  V30 5 C -2.5968 -1.5109 0.0 0
M  V30 6 C 2.5968 -1.5109 0.0 0
M  V30 7 C -3.8952 -2.2663 0.0 0
M  V30 8 C 3.8952 -2.2663 0.0 0
M  V30 9 C -5.1937 -1.5227 0.0 0
M  V30 10 C 5.1937 -1.5227 0.0 0
M  V30 11 C 3.8952 -3.7654 0.0 0
M  V30 12 C -6.4921 -2.2781 0.0 0
M  V30 13 C 6.4921 -2.2781 0.0 0
M  V30 14 C 5.1937 -4.5209 0.0 0
M  V30 15 C 6.4921 -3.7772 0.0 0
M  V30 16 O 7.7905 -4.5327 0.0 0
M  V30 17 C 7.7905 -6.0318 0.0 0
M  V30 18 C 9.089 -6.7872 0.0 0
M  V30 19 C 6.4921 -6.7872 0.0 0
M  V30 END ATOM
M  V30 BEGIN BOND
M  V30 1 2 1 2
M  V30 2 1 2 3
M  V30 3 1 2 4
M  V30 4 1 3 5
M  V30 5 2 4 6 CFG=2
M  V30 6 1 5 7
M  V30 7 1 6 8
M  V30 8 1 7 9
M  V30 9 2 8 10
M  V30 10 1 8 11
M  V30 11 1 9 12
M  V30 12 1 10 13
M  V30 13 2 11 14
M  V30 14 2 13 15
M  V30 15 1 15 16
M  V30 16 1 16 17
M  V30 17 1 17 18
M  V30 18 1 17 19
M  V30 19 1 14 15
M  V30 END BOND
M  V30 END CTAB
M  END
>  <Molecule Name>
p-iso-Propoxycinnamic acid, n-butyl ester

>  <Activity Label>
0

>  <SMILES>
CCCCOC(C=Cc(cc1)ccc1OC(C)C)=O

>  <Molecular Formula>
C16H22O3

>  <InChIKey>
WYZSIODQHOOTRM-UHFFFAOYSA-N

>  <Repellency>
Inactive

>  <Reference DOI>
10.3390/toxics11100837

>  <Target Organism>
Not applied

$$$$
Compound 1002
Actelion Java MolfileCreator 2.0

  0  0  0  0  0  0              0 V3000
M  V30 BEGIN CTAB
M  V30 COUNTS 19 19 0 0 0
M  V30 BEGIN ATOM
M  V30 1 S 0.0 0.0 0.0 0
M  V30 2 O 0.7557 1.2989 0.0 0
M  V30 3 O -0.7439 1.2989 0.0 0
M  V30 4 O -1.2989 -0.7557 0.0 0
M  V30 5 C 1.2989 -0.7557 0.0 0
M  V30 6 C -2.5979 -0.0118 0.0 0
M  V30 7 C 2.5979 0.0 0.0 0
M  V30 8 C 1.2989 -2.2554 0.0 0
M  V30 9 C -3.8968 -0.7675 0.0 0
M  V30 10 C 3.8968 -0.7439 0.0 0
M  V30 11 C 2.5979 -2.9994 0.0 0
M  V30 12 C -5.1958 -0.0236 0.0 0
M  V30 13 C 3.8968 -2.2436 0.0 0
M  V30 14 C -6.4947 -0.7793 0.0 0
M  V30 15 C 5.1958 -2.9875 0.0 0
M  V30 16 C -7.7937 -0.0354 0.0 0
M  V30 17 C -9.0926 -0.7911 0.0 0
M  V30 18 C -10.3916 -0.0472 0.0 0
M  V30 19 C -11.6905 -0.8029 0.0 0
M  V30 END ATOM
M  V30 BEGIN BOND
M  V30 1 2 1 2
M  V30 2 2 1 3
M  V30 3 1 1 4
M  V30 4 1 1 5
M  V30 5 1 4 6
M  V30 6 2 5 7
M  V30 7 1 5 8
M  V30 8 1 6 9
M  V30 9 1 7 10
M  V30 10 2 8 11
M  V30 11 1 9 12
M  V30 12 2 10 13
M  V30 13 1 12 14
M  V30 14 1 13 15
M  V30 15 1 14 16
M  V30 16 1 16 17
M  V30 17 1 17 18
M  V30 18 1 18 19
M  V30 19 1 11 13
M  V30 END BOND
M  V30 END CTAB
M  END
>  <Molecule Name>
p-Toluenesulfonic acid, n-octyl ester

>  <Activity Label>
0

>  <SMILES>
CCCCCCCCOS(c1ccc(C)cc1)(=O)=O

>  <Molecular Formula>
C15H24O3S

>  <InChIKey>
LYQJBZLAANNIER-UHFFFAOYSA-N

>  <Repellency>
Inactive

>  <Reference DOI>
10.3390/toxics11100837

>  <Target Organism>
Not applied

$$$$
Compound 1003
Actelion Java MolfileCreator 2.0

  0  0  0  0  0  0              0 V3000
M  V30 BEGIN CTAB
M  V30 COUNTS 19 19 0 0 0
M  V30 BEGIN ATOM
M  V30 1 O 0.0 0.0 0.0 0
M  V30 2 C 1.2992 0.7441 0.0 0
M  V30 3 N 1.2992 2.2441 0.0 0
M  V30 4 C 2.5984 0.0 0.0 0
M  V30 5 C 2.5984 2.9882 0.0 0
M  V30 6 C 0.0 2.9882 0.0 0
M  V30 7 C 2.5984 -1.5 0.0 0
M  V30 8 C 3.8977 2.2323 0.0 0
M  V30 9 C -1.2992 2.2323 0.0 0
M  V30 10 C 3.8977 -2.2559 0.0 0
M  V30 11 C 5.1969 2.9764 0.0 0
M  V30 12 C -2.5984 2.9764 0.0 0
M  V30 13 C 3.8977 -3.7559 0.0 0
M  V30 14 C 5.1969 -1.5118 0.0 0
M  V30 15 C 6.4961 2.2205 0.0 0
M  V30 16 C -3.8977 2.2205 0.0 0
M  V30 17 C 5.1969 -4.5118 0.0 0
M  V30 18 C 6.4961 -2.2677 0.0 0
M  V30 19 C 6.4961 -3.7677 0.0 0
M  V30 END ATOM
M  V30 BEGIN BOND
M  V30 1 2 1 2
M  V30 2 1 2 3
M  V30 3 1 2 4
M  V30 4 1 3 5
M  V30 5 1 3 6
M  V30 6 2 4 7 CFG=2
M  V30 7 1 5 8
M  V30 8 1 6 9
M  V30 9 1 7 10
M  V30 10 1 8 11
M  V30 11 1 9 12
M  V30 12 2 10 13
M  V30 13 1 10 14
M  V30 14 1 11 15
M  V30 15 1 12 16
M  V30 16 1 13 17
M  V30 17 2 14 18
M  V30 18 2 17 19
M  V30 19 1 18 19
M  V30 END BOND
M  V30 END CTAB
M  END
>  <Molecule Name>
N,N-Dibutylcinnamamide

>  <Activity Label>
0

>  <SMILES>
CCCCN(CCCC)C(C=Cc1ccccc1)=O

>  <Molecular Formula>
C17H25NO

>  <InChIKey>
PHYRXZUUIWFWPC-UHFFFAOYSA-N

>  <Repellency>
Inactive

>  <Reference DOI>
10.3390/toxics11100837

>  <Target Organism>
Not applied

$$$$
Compound 1004
Actelion Java MolfileCreator 2.0

  0  0  0  0  0  0              0 V3000
M  V30 BEGIN CTAB
M  V30 COUNTS 20 20 0 0 0
M  V30 BEGIN ATOM
M  V30 1 Br 0.0 0.0 0.0 0
M  V30 2 C -1.297 -0.7428 0.0 0
M  V30 3 C -2.594 0.0117 0.0 0
M  V30 4 C -1.297 -2.2403 0.0 0
M  V30 5 C -3.8911 -0.731 0.0 0
M  V30 6 C -2.594 -2.9949 0.0 0
M  V30 7 C -3.8911 -2.2285 0.0 0
M  V30 8 C -5.1881 -2.9831 0.0 0
M  V30 9 C -6.4852 -2.2285 0.0 0
M  V30 10 C -7.7822 -2.9831 0.0 0
M  V30 11 C -9.0792 -2.2285 0.0 0
M  V30 12 C -10.3763 -2.9831 0.0 0
M  V30 13 C -11.6733 -2.2285 0.0 0
M  V30 14 C -12.9704 -2.9831 0.0 0
M  V30 15 C -14.2674 -2.2285 0.0 0
M  V30 16 C -15.5645 -2.9831 0.0 0
M  V30 17 C -16.8615 -2.2285 0.0 0
M  V30 18 C -18.1585 -2.9831 0.0 0
M  V30 19 C -19.4556 -2.2285 0.0 0
M  V30 20 C -20.7526 -2.9831 0.0 0
M  V30 END ATOM
M  V30 BEGIN BOND
M  V30 1 1 1 2
M  V30 2 2 2 3
M  V30 3 1 2 4
M  V30 4 1 3 5
M  V30 5 2 4 6
M  V30 6 2 5 7
M  V30 7 1 7 8
M  V30 8 2 8 9 CFG=2
M  V30 9 1 9 10
M  V30 10 1 10 11
M  V30 11 1 11 12
M  V30 12 1 12 13
M  V30 13 1 13 14
M  V30 14 1 14 15
M  V30 15 1 15 16
M  V30 16 1 16 17
M  V30 17 1 17 18
M  V30 18 1 18 19
M  V30 19 1 19 20
M  V30 20 1 6 7
M  V30 END BOND
M  V30 END CTAB
M  END
>  <Molecule Name>
1-(p-Bromophenyl)-1-tridecene

>  <Activity Label>
0

>  <SMILES>
CCCCCCCCCCCC=Cc(cc1)ccc1Br

>  <Molecular Formula>
C19H29Br

>  <InChIKey>
ZJBNYJRSEUXIGZ-UHFFFAOYSA-N

>  <Repellency>
Inactive

>  <Reference DOI>
10.3390/toxics11100837

>  <Target Organism>
Not applied

$$$$
Compound 1005
Actelion Java MolfileCreator 2.0

  0  0  0  0  0  0              0 V3000
M  V30 BEGIN CTAB
M  V30 COUNTS 20 20 0 0 0
M  V30 BEGIN ATOM
M  V30 1 O 0.0 0.0 0.0 0
M  V30 2 C 1.299 -0.7558 0.0 0
M  V30 3 C -1.299 -0.7558 0.0 0
M  V30 4 C 2.5981 0.0 0.0 0
M  V30 5 C 1.299 -2.2556 0.0 0
M  V30 6 C -2.5981 -0.0118 0.0 0
M  V30 7 C 3.8972 -0.744 0.0 0
M  V30 8 C 2.5981 -2.9997 0.0 0
M  V30 9 O -3.8972 -0.7676 0.0 0
M  V30 10 C 3.8972 -2.2438 0.0 0
M  V30 11 C -5.1963 -0.0236 0.0 0
M  V30 12 C 5.1963 -2.9879 0.0 0
M  V30 13 C -6.4954 -0.7794 0.0 0
M  V30 14 C 5.9521 -1.6888 0.0 0
M  V30 15 C 6.4954 -3.7319 0.0 0
M  V30 16 C 4.4523 -4.2869 0.0 0
M  V30 17 O -7.7945 -0.0354 0.0 0
M  V30 18 C -9.0936 -0.7912 0.0 0
M  V30 19 C -10.3927 -0.0472 0.0 0
M  V30 20 O -11.6917 -0.803 0.0 0
M  V30 END ATOM
M  V30 BEGIN BOND
M  V30 1 1 1 2
M  V30 2 1 1 3
M  V30 3 2 2 4
M  V30 4 1 2 5
M  V30 5 1 3 6
M  V30 6 1 4 7
M  V30 7 2 5 8
M  V30 8 1 6 9
M  V30 9 2 7 10
M  V30 10 1 9 11
M  V30 11 1 10 12
M  V30 12 1 11 13
M  V30 13 1 12 14
M  V30 14 1 12 15
M  V30 15 1 12 16
M  V30 16 1 13 17
M  V30 17 1 17 18
M  V30 18 1 18 19
M  V30 19 1 19 20
M  V30 20 1 8 10
M  V30 END BOND
M  V30 END CTAB
M  END
>  <Molecule Name>
2-(2-(2-(4-tert-Butylphenoxy)ethoxy)ethoxy)ethanol

>  <Activity Label>
0

>  <SMILES>
CC(C)(C)c(cc1)ccc1OCCOCCOCCO

>  <Molecular Formula>
C16H26O4

>  <InChIKey>
OUHBFQJURKUCNA-UHFFFAOYSA-N

>  <Repellency>
Inactive

>  <Reference DOI>
10.3390/toxics11100837

>  <Target Organism>
Not applied

$$$$
Compound 1006
Actelion Java MolfileCreator 2.0

  0  0  0  0  0  0              0 V3000
M  V30 BEGIN CTAB
M  V30 COUNTS 20 20 0 0 0
M  V30 BEGIN ATOM
M  V30 1 O 0.0 0.0 0.0 0
M  V30 2 C 0.0 -1.4989 0.0 0
M  V30 3 O -1.2983 -2.2543 0.0 0
M  V30 4 C 1.2983 -2.2543 0.0 0
M  V30 5 C -2.5966 -1.5107 0.0 0
M  V30 6 C 1.2983 -3.7533 0.0 0
M  V30 7 C 2.5966 -1.5107 0.0 0
M  V30 8 C -3.895 -2.2661 0.0 0
M  V30 9 C 0.0 -4.5087 0.0 0
M  V30 10 C 2.5966 -4.5087 0.0 0
M  V30 11 C 3.895 -2.2543 0.0 0
M  V30 12 C -5.1933 -1.5225 0.0 0
M  V30 13 O -1.2983 -3.7533 0.0 0
M  V30 14 O 0.0 -6.0077 0.0 0
M  V30 15 C 3.895 -3.7651 0.0 0
M  V30 16 C -6.4916 -2.2779 0.0 0
M  V30 17 C -7.79 -1.5343 0.0 0
M  V30 18 C -9.0883 -2.2897 0.0 0
M  V30 19 C -10.3866 -1.5461 0.0 0
M  V30 20 C -11.685 -2.3015 0.0 0
M  V30 END ATOM
M  V30 BEGIN BOND
M  V30 1 2 1 2
M  V30 2 1 2 3
M  V30 3 1 2 4
M  V30 4 1 3 5
M  V30 5 2 4 6
M  V30 6 1 4 7
M  V30 7 1 5 8
M  V30 8 1 6 9
M  V30 9 1 6 10
M  V30 10 2 7 11
M  V30 11 1 8 12
M  V30 12 2 9 13
M  V30 13 1 9 14
M  V30 14 2 10 15
M  V30 15 1 12 16
M  V30 16 1 16 17
M  V30 17 1 17 18
M  V30 18 1 18 19
M  V30 19 1 19 20
M  V30 20 1 11 15
M  V30 END BOND
M  V30 END CTAB
M  END
>  <Molecule Name>
Phthalic acid, n-octyl hydrogen ester

>  <Activity Label>
0

>  <SMILES>
CCCCCCCCOC(c(cccc1)c1C(O)=O)=O

>  <Molecular Formula>
C16H22O4

>  <InChIKey>
PKIYFBICNICNGJ-UHFFFAOYSA-N

>  <Repellency>
Inactive

>  <Reference DOI>
10.3390/toxics11100837

>  <Target Organism>
Not applied

$$$$
Compound 1007
Actelion Java MolfileCreator 2.0

  0  0  0  0  0  0              0 V3000
M  V30 BEGIN CTAB
M  V30 COUNTS 20 20 0 0 0
M  V30 BEGIN ATOM
M  V30 1 O 0.0 0.0 0.0 0
M  V30 2 C 1.2988 -0.7557 0.0 0
M  V30 3 O 1.2988 -2.2552 0.0 0
M  V30 4 C 2.5977 -0.0118 0.0 0
M  V30 5 C 0.0 -2.9991 0.0 0
M  V30 6 C 2.5977 1.4877 0.0 0
M  V30 7 C 3.8965 -0.7675 0.0 0
M  V30 8 C 0.0 -4.4987 0.0 0
M  V30 9 C 1.2988 2.2316 0.0 0
M  V30 10 C 3.8965 2.2316 0.0 0
M  V30 11 C 5.1954 -0.0236 0.0 0
M  V30 12 C -1.2988 -5.2544 0.0 0
M  V30 13 O 1.2988 3.7312 0.0 0
M  V30 14 O 0.0 1.4759 0.0 0
M  V30 15 C 5.1954 1.4877 0.0 0
M  V30 16 C -1.2988 -6.754 0.0 0
M  V30 17 C -1.2988 2.2198 0.0 0
M  V30 18 C -2.5977 1.4641 0.0 0
M  V30 19 C -3.8965 2.208 0.0 0
M  V30 20 C -5.1954 1.4523 0.0 0
M  V30 END ATOM
M  V30 BEGIN BOND
M  V30 1 2 1 2
M  V30 2 1 2 3
M  V30 3 1 2 4
M  V30 4 1 3 5
M  V30 5 2 4 6
M  V30 6 1 4 7
M  V30 7 1 5 8
M  V30 8 1 6 9
M  V30 9 1 6 10
M  V30 10 2 7 11
M  V30 11 1 8 12
M  V30 12 2 9 13
M  V30 13 1 9 14
M  V30 14 2 10 15
M  V30 15 1 12 16
M  V30 16 1 14 17
M  V30 17 1 17 18
M  V30 18 1 18 19
M  V30 19 1 19 20
M  V30 20 1 11 15
M  V30 END BOND
M  V30 END CTAB
M  END
>  <Molecule Name>
Phthalic acid, di-n-butyl ester

>  <Activity Label>
0

>  <SMILES>
CCCCOC(c(cccc1)c1C(OCCCC)=O)=O

>  <Molecular Formula>
C16H22O4

>  <InChIKey>
DOIRQSBPFJWKBE-UHFFFAOYSA-N

>  <Repellency>
Inactive

>  <Reference DOI>
10.3390/toxics11100837

>  <Target Organism>
Not applied

$$$$
Compound 1008
Actelion Java MolfileCreator 2.0

  0  0  0  0  0  0              0 V3000
M  V30 BEGIN CTAB
M  V30 COUNTS 20 20 0 0 0
M  V30 BEGIN ATOM
M  V30 1 O 0.0 0.0 0.0 0
M  V30 2 C 1.2988 -0.7557 0.0 0
M  V30 3 O 1.2988 -2.2552 0.0 0
M  V30 4 C 2.5977 -0.0118 0.0 0
M  V30 5 C 0.0 -2.9991 0.0 0
M  V30 6 C 2.5977 1.4877 0.0 0
M  V30 7 C 3.8965 -0.7675 0.0 0
M  V30 8 C 0.0 -4.4987 0.0 0
M  V30 9 C 1.2988 2.2316 0.0 0
M  V30 10 C 3.8965 2.2316 0.0 0
M  V30 11 C 5.1954 -0.0236 0.0 0
M  V30 12 C -1.2988 -5.2544 0.0 0
M  V30 13 O 1.2988 3.7312 0.0 0
M  V30 14 O 0.0 1.4759 0.0 0
M  V30 15 C 5.1954 1.4877 0.0 0
M  V30 16 C -1.2988 -6.754 0.0 0
M  V30 17 C -1.2988 2.2198 0.0 0
M  V30 18 C -2.5977 1.4641 0.0 0
M  V30 19 C -3.8965 2.208 0.0 0
M  V30 20 C -5.1954 1.4523 0.0 0
M  V30 END ATOM
M  V30 BEGIN BOND
M  V30 1 2 1 2
M  V30 2 1 2 3
M  V30 3 1 2 4
M  V30 4 1 3 5
M  V30 5 1 4 6
M  V30 6 1 4 7
M  V30 7 1 5 8
M  V30 8 1 6 9
M  V30 9 1 6 10
M  V30 10 1 7 11
M  V30 11 1 8 12
M  V30 12 2 9 13
M  V30 13 1 9 14
M  V30 14 1 10 15
M  V30 15 1 12 16
M  V30 16 1 14 17
M  V30 17 1 17 18
M  V30 18 1 18 19
M  V30 19 1 19 20
M  V30 20 1 11 15
M  V30 END BOND
M  V30 END CTAB
M  END
>  <Molecule Name>
Hexahydrophthalic acid, di-n-butyl ester

>  <Activity Label>
0

>  <SMILES>
CCCCOC(C(CCCC1)C1C(OCCCC)=O)=O

>  <Molecular Formula>
C16H28O4

>  <InChIKey>
ANSWCYTXKAIJOK-UHFFFAOYSA-N

>  <Repellency>
Inactive

>  <Reference DOI>
10.3390/toxics11100837

>  <Target Organism>
Not applied

$$$$
Compound 1009
Actelion Java MolfileCreator 2.0

  0  0  0  0  0  0              0 V3000
M  V30 BEGIN CTAB
M  V30 COUNTS 20 20 0 0 0
M  V30 BEGIN ATOM
M  V30 1 O 0.0 0.0 0.0 0
M  V30 2 C 0.0 1.4998 0.0 0
M  V30 3 O 1.2991 2.2557 0.0 0
M  V30 4 C -1.2991 2.2439 0.0 0
M  V30 5 C 2.5982 1.5116 0.0 0
M  V30 6 C -2.5982 1.488 0.0 0
M  V30 7 C -1.2991 3.7437 0.0 0
M  V30 8 C 3.8973 2.2675 0.0 0
M  V30 9 C -3.8973 2.232 0.0 0
M  V30 10 C -2.5982 4.4878 0.0 0
M  V30 11 C 5.1964 1.5234 0.0 0
M  V30 12 C -3.8973 3.7319 0.0 0
M  V30 13 C 6.4955 2.2793 0.0 0
M  V30 14 C -5.1964 4.4759 0.0 0
M  V30 15 O -5.1964 5.9758 0.0 0
M  V30 16 O -6.4955 3.7201 0.0 0
M  V30 17 C -7.7946 4.4641 0.0 0
M  V30 18 C -9.0937 3.7083 0.0 0
M  V30 19 C -10.3928 4.4523 0.0 0
M  V30 20 C -11.6919 3.6965 0.0 0
M  V30 END ATOM
M  V30 BEGIN BOND
M  V30 1 2 1 2
M  V30 2 1 2 3
M  V30 3 1 2 4
M  V30 4 1 3 5
M  V30 5 2 4 6
M  V30 6 1 4 7
M  V30 7 1 5 8
M  V30 8 1 6 9
M  V30 9 2 7 10
M  V30 10 1 8 11
M  V30 11 2 9 12
M  V30 12 1 11 13
M  V30 13 1 12 14
M  V30 14 2 14 15
M  V30 15 1 14 16
M  V30 16 1 16 17
M  V30 17 1 17 18
M  V30 18 1 18 19
M  V30 19 1 19 20
M  V30 20 1 10 12
M  V30 END BOND
M  V30 END CTAB
M  END
>  <Molecule Name>
terePhthalic acid, di-n-butyl ester

>  <Activity Label>
0

>  <SMILES>
CCCCOC(c(cc1)ccc1C(OCCCC)=O)=O

>  <Molecular Formula>
C16H22O4

>  <InChIKey>
LQLQDKBJAIILIQ-UHFFFAOYSA-N

>  <Repellency>
Inactive

>  <Reference DOI>
10.3390/toxics11100837

>  <Target Organism>
Not applied

$$$$
Compound 1010
Actelion Java MolfileCreator 2.0

  0  0  0  0  0  0              0 V3000
M  V30 BEGIN CTAB
M  V30 COUNTS 20 20 0 0 0
M  V30 BEGIN ATOM
M  V30 1 O 0.0 0.0 0.0 0
M  V30 2 C 0.0 1.5009 0.0 0
M  V30 3 O -1.3 2.2454 0.0 0
M  V30 4 C 1.3 2.2454 0.0 0 CFG=1
M  V30 5 C -2.6 1.5009 0.0 0
M  V30 6 O 2.6 1.5009 0.0 0
M  V30 7 C 1.3 3.7463 0.0 0
M  V30 8 C -3.9 2.2572 0.0 0
M  V30 9 C -2.6 0.0 0.0 0
M  V30 10 C 3.9 2.2454 0.0 0
M  V30 11 C -5.2 1.5127 0.0 0
M  V30 12 C -3.9 -0.7445 0.0 0
M  V30 13 O 3.9 3.7463 0.0 0
M  V30 14 C 5.2 1.5009 0.0 0
M  V30 15 C -5.2 0.0118 0.0 0
M  V30 16 C -6.5 -0.7327 0.0 0
M  V30 17 C -7.8 0.0236 0.0 0
M  V30 18 C -7.2563 -2.0327 0.0 0
M  V30 19 C -5.7554 -2.0327 0.0 0
M  V30 20 C -9.1 -0.7209 0.0 0
M  V30 END ATOM
M  V30 BEGIN BOND
M  V30 1 2 1 2
M  V30 2 1 2 3
M  V30 3 1 2 4
M  V30 4 1 3 5
M  V30 5 1 4 6
M  V30 6 1 4 7 CFG=3
M  V30 7 2 5 8
M  V30 8 1 5 9
M  V30 9 1 6 10
M  V30 10 1 8 11
M  V30 11 2 9 12
M  V30 12 2 10 13
M  V30 13 1 10 14
M  V30 14 2 11 15
M  V30 15 1 15 16
M  V30 16 1 16 17
M  V30 17 1 16 18
M  V30 18 1 16 19
M  V30 19 1 17 20
M  V30 20 1 12 15
M  V30 END BOND
M  V30 BEGIN COLLECTION
M  V30 MDLV30/STERAC1 ATOMS=(1 4)
M  V30 END COLLECTION
M  V30 END CTAB
M  END
>  <Molecule Name>
alpha-Acetoxypropionic acid, p-tert-amylphenyl ester

>  <Activity Label>
0

>  <SMILES>
CCC(C)(C)c(cc1)ccc1OC(C(C)OC(C)=O)=O

>  <Molecular Formula>
C16H22O4

>  <InChIKey>
SJWHVANXXRAOKW-UHFFFAOYSA-N

>  <Repellency>
Inactive

>  <Reference DOI>
10.3390/toxics11100837

>  <Target Organism>
Not applied

$$$$
Compound 1011
Actelion Java MolfileCreator 2.0

  0  0  0  0  0  0              0 V3000
M  V30 BEGIN CTAB
M  V30 COUNTS 20 20 0 0 0
M  V30 BEGIN ATOM
M  V30 1 O 0.0 0.0 0.0 0
M  V30 2 C -1.3005 0.7448 0.0 0
M  V30 3 O -2.601 0.0 0.0 0
M  V30 4 C -1.3005 2.2463 0.0 0
M  V30 5 C -2.601 -1.5015 0.0 0
M  V30 6 C -2.601 2.9912 0.0 0
M  V30 7 C 0.0 2.9912 0.0 0
M  V30 8 C -3.9015 -2.2581 0.0 0
M  V30 9 C -3.9015 2.2463 0.0 0
M  V30 10 C -2.601 4.4927 0.0 0
M  V30 11 C 0.0 4.4927 0.0 0
M  V30 12 C -5.2021 -1.5133 0.0 0
M  V30 13 C -3.9015 -3.7597 0.0 0
M  V30 14 O -3.9015 0.7448 0.0 0
M  V30 15 O -5.2021 2.9912 0.0 0
M  V30 16 C -1.3005 5.2375 0.0 0
M  V30 17 C -6.5026 2.2463 0.0 0
M  V30 18 C -7.8031 2.9912 0.0 0
M  V30 19 C -7.8031 4.4927 0.0 0
M  V30 20 C -9.1037 2.2463 0.0 0
M  V30 END ATOM
M  V30 BEGIN BOND
M  V30 1 2 1 2
M  V30 2 1 2 3
M  V30 3 1 2 4
M  V30 4 1 3 5
M  V30 5 2 4 6
M  V30 6 1 4 7
M  V30 7 1 5 8
M  V30 8 1 6 9
M  V30 9 1 6 10
M  V30 10 2 7 11
M  V30 11 1 8 12
M  V30 12 1 8 13
M  V30 13 2 9 14
M  V30 14 1 9 15
M  V30 15 2 10 16
M  V30 16 1 15 17
M  V30 17 1 17 18
M  V30 18 1 18 19
M  V30 19 1 18 20
M  V30 20 1 11 16
M  V30 END BOND
M  V30 END CTAB
M  END
>  <Molecule Name>
Phthalic acid, di-iso-butyl ester

>  <Activity Label>
0

>  <SMILES>
CC(C)COC(c(cccc1)c1C(OCC(C)C)=O)=O

>  <Molecular Formula>
C16H22O4

>  <InChIKey>
MGWAVDBGNNKXQV-UHFFFAOYSA-N

>  <Repellency>
Inactive

>  <Reference DOI>
10.3390/toxics11100837

>  <Target Organism>
Not applied

$$$$
Compound 1012
Actelion Java MolfileCreator 2.0

  0  0  0  0  0  0              0 V3000
M  V30 BEGIN CTAB
M  V30 COUNTS 20 20 0 0 0
M  V30 BEGIN ATOM
M  V30 1 O 0.0 0.0 0.0 0
M  V30 2 C -1.3005 0.7448 0.0 0
M  V30 3 O -2.601 0.0 0.0 0
M  V30 4 C -1.3005 2.2463 0.0 0
M  V30 5 C -2.601 -1.5015 0.0 0
M  V30 6 C -2.601 2.9912 0.0 0
M  V30 7 C 0.0 2.9912 0.0 0
M  V30 8 C -3.9015 -2.2581 0.0 0
M  V30 9 C -1.3005 -2.2463 0.0 0
M  V30 10 C -3.9015 2.2463 0.0 0
M  V30 11 C -2.601 4.4927 0.0 0
M  V30 12 C 0.0 4.4927 0.0 0
M  V30 13 C -3.9015 -3.7597 0.0 0
M  V30 14 O -3.9015 0.7448 0.0 0
M  V30 15 O -5.2021 2.9912 0.0 0
M  V30 16 C -1.3005 5.2375 0.0 0
M  V30 17 C -6.5026 2.2463 0.0 0
M  V30 18 C -7.8031 2.9912 0.0 0
M  V30 19 C -6.5026 0.7448 0.0 0
M  V30 20 C -9.1037 2.2463 0.0 0
M  V30 END ATOM
M  V30 BEGIN BOND
M  V30 1 2 1 2
M  V30 2 1 2 3
M  V30 3 1 2 4
M  V30 4 1 3 5
M  V30 5 2 4 6
M  V30 6 1 4 7
M  V30 7 1 5 8
M  V30 8 1 5 9
M  V30 9 1 6 10
M  V30 10 1 6 11
M  V30 11 2 7 12
M  V30 12 1 8 13
M  V30 13 2 10 14
M  V30 14 1 10 15
M  V30 15 2 11 16
M  V30 16 1 15 17
M  V30 17 1 17 18
M  V30 18 1 17 19
M  V30 19 1 18 20
M  V30 20 1 12 16
M  V30 END BOND
M  V30 END CTAB
M  END
>  <Molecule Name>
Phthalic acid, di-sec-butyl ester

>  <Activity Label>
0

>  <SMILES>
CCC(C)OC(c(cccc1)c1C(OC(C)CC)=O)=O

>  <Molecular Formula>
C16H22O4

>  <InChIKey>
HAPGVMADJBQOGC-UHFFFAOYSA-N

>  <Repellency>
Inactive

>  <Reference DOI>
10.3390/toxics11100837

>  <Target Organism>
Not applied

$$$$
Compound 1013
Actelion Java MolfileCreator 2.0

  0  0  0  0  0  0              0 V3000
M  V30 BEGIN CTAB
M  V30 COUNTS 20 20 0 0 0
M  V30 BEGIN ATOM
M  V30 1 O 0.0 0.0 0.0 0
M  V30 2 C 0.0 1.5022 0.0 0
M  V30 3 O 1.3011 2.2474 0.0 0
M  V30 4 C -1.3011 2.2474 0.0 0 CFG=1
M  V30 5 C 2.6023 1.5022 0.0 0
M  V30 6 C -1.3011 3.7496 0.0 0
M  V30 7 C -2.6023 1.5022 0.0 0
M  V30 8 C 0.0 4.4948 0.0 0
M  V30 9 C -2.6023 4.4948 0.0 0
M  V30 10 C -3.9034 2.2474 0.0 0
M  V30 11 C 0.0 5.9971 0.0 0
M  V30 12 C -2.6023 5.9971 0.0 0
M  V30 13 C -5.2046 1.5022 0.0 0
M  V30 14 C -1.3011 6.7423 0.0 0
M  V30 15 C -6.5057 2.2474 0.0 0
M  V30 16 C -7.8069 1.5022 0.0 0
M  V30 17 C -9.108 2.2474 0.0 0
M  V30 18 C -10.4092 1.5022 0.0 0
M  V30 19 C -11.7103 2.2474 0.0 0
M  V30 20 C -13.0115 1.5022 0.0 0
M  V30 END ATOM
M  V30 BEGIN BOND
M  V30 1 2 1 2
M  V30 2 1 2 3
M  V30 3 1 2 4
M  V30 4 1 3 5
M  V30 5 1 4 6
M  V30 6 1 4 7 CFG=3
M  V30 7 2 6 8
M  V30 8 1 6 9
M  V30 9 1 7 10
M  V30 10 1 8 11
M  V30 11 2 9 12
M  V30 12 1 10 13
M  V30 13 2 11 14
M  V30 14 1 13 15
M  V30 15 1 15 16
M  V30 16 1 16 17
M  V30 17 1 17 18
M  V30 18 1 18 19
M  V30 19 1 19 20
M  V30 20 1 12 14
M  V30 END BOND
M  V30 BEGIN COLLECTION
M  V30 MDLV30/STERAC1 ATOMS=(1 4)
M  V30 END COLLECTION
M  V30 END CTAB
M  END
>  <Molecule Name>
Phenylundecylic acid, methyl ester

>  <Activity Label>
0

>  <SMILES>
CCCCCCCCCC(C(OC)=O)c1ccccc1

>  <Molecular Formula>
C18H28O2

>  <InChIKey>
BOZNIVWXRHNNML-UHFFFAOYSA-N

>  <Repellency>
Inactive

>  <Reference DOI>
10.3390/toxics11100837

>  <Target Organism>
Not applied

$$$$
Compound 1014
Actelion Java MolfileCreator 2.0

  0  0  0  0  0  0              0 V3000
M  V30 BEGIN CTAB
M  V30 COUNTS 20 20 0 0 0
M  V30 BEGIN ATOM
M  V30 1 O 0.0 0.0 0.0 0
M  V30 2 C 1.2988 -0.7557 0.0 0
M  V30 3 O 1.2988 -2.2552 0.0 0
M  V30 4 C 2.5977 -0.0118 0.0 0
M  V30 5 C 0.0 -3.0109 0.0 0
M  V30 6 O 2.5977 1.4877 0.0 0
M  V30 7 C 0.0 -4.5105 0.0 0
M  V30 8 C 3.8965 2.2316 0.0 0
M  V30 9 C 3.8965 3.7312 0.0 0
M  V30 10 C 5.1954 1.4759 0.0 0
M  V30 11 O 2.5977 4.4751 0.0 0
M  V30 12 C 5.1954 4.4751 0.0 0
M  V30 13 C 6.4943 2.2198 0.0 0
M  V30 14 C 1.2988 3.7194 0.0 0
M  V30 15 C 6.4943 3.7312 0.0 0
M  V30 16 C 0.0 4.4633 0.0 0
M  V30 17 O 0.0 5.9629 0.0 0
M  V30 18 O -1.2988 3.7076 0.0 0
M  V30 19 C -2.5977 4.4515 0.0 0
M  V30 20 C -3.8965 3.6958 0.0 0
M  V30 END ATOM
M  V30 BEGIN BOND
M  V30 1 2 1 2
M  V30 2 1 2 3
M  V30 3 1 2 4
M  V30 4 1 3 5
M  V30 5 1 4 6
M  V30 6 1 5 7
M  V30 7 1 6 8
M  V30 8 2 8 9
M  V30 9 1 8 10
M  V30 10 1 9 11
M  V30 11 1 9 12
M  V30 12 2 10 13
M  V30 13 1 11 14
M  V30 14 2 12 15
M  V30 15 1 14 16
M  V30 16 2 16 17
M  V30 17 1 16 18
M  V30 18 1 18 19
M  V30 19 1 19 20
M  V30 20 1 13 15
M  V30 END BOND
M  V30 END CTAB
M  END
>  <Molecule Name>
o-Phenylenedioxydiacetic acid, diethyl ester

>  <Activity Label>
0

>  <SMILES>
CCOC(COc(cccc1)c1OCC(OCC)=O)=O

>  <Molecular Formula>
C14H18O6

>  <InChIKey>
OWDWYMQQPITBNX-UHFFFAOYSA-N

>  <Repellency>
Inactive

>  <Reference DOI>
10.3390/toxics11100837

>  <Target Organism>
Not applied

$$$$
Compound 1015
Actelion Java MolfileCreator 2.0

  0  0  0  0  0  0              0 V3000
M  V30 BEGIN CTAB
M  V30 COUNTS 20 20 0 0 0
M  V30 BEGIN ATOM
M  V30 1 O 0.0 0.0 0.0 0
M  V30 2 C 1.2988 0.7438 0.0 0
M  V30 3 C -1.2988 0.7438 0.0 0
M  V30 4 C 2.5976 -0.0118 0.0 0
M  V30 5 C -2.5976 -0.0118 0.0 0
M  V30 6 C 2.5976 -1.5113 0.0 0
M  V30 7 C 3.8964 0.732 0.0 0
M  V30 8 C -3.8964 0.732 0.0 0
M  V30 9 C 3.8964 -2.267 0.0 0
M  V30 10 C 5.1953 -0.0118 0.0 0
M  V30 11 C -5.1953 -0.0236 0.0 0
M  V30 12 C 5.1953 -1.5231 0.0 0
M  V30 13 C -6.4941 0.7202 0.0 0
M  V30 14 C -7.7929 -0.0354 0.0 0
M  V30 15 C -9.0918 0.7084 0.0 0
M  V30 16 C -10.3906 -0.0472 0.0 0
M  V30 17 C -11.6894 0.6966 0.0 0
M  V30 18 C -12.9883 -0.059 0.0 0
M  V30 19 C -14.2871 0.6848 0.0 0
M  V30 20 C -15.5859 -0.0708 0.0 0
M  V30 END ATOM
M  V30 BEGIN BOND
M  V30 1 1 1 2
M  V30 2 1 1 3
M  V30 3 1 2 4
M  V30 4 1 3 5
M  V30 5 2 4 6
M  V30 6 1 4 7
M  V30 7 1 5 8
M  V30 8 1 6 9
M  V30 9 2 7 10
M  V30 10 1 8 11
M  V30 11 2 9 12
M  V30 12 1 11 13
M  V30 13 1 13 14
M  V30 14 1 14 15
M  V30 15 1 15 16
M  V30 16 1 16 17
M  V30 17 1 17 18
M  V30 18 1 18 19
M  V30 19 1 19 20
M  V30 20 1 10 12
M  V30 END BOND
M  V30 END CTAB
M  END
>  <Molecule Name>
Dodecyl benzyl ether

>  <Activity Label>
0

>  <SMILES>
CCCCCCCCCCCCOCc1ccccc1

>  <Molecular Formula>
C19H32O

>  <InChIKey>
UZQPWASKVYDSRV-UHFFFAOYSA-N

>  <Repellency>
Inactive

>  <Reference DOI>
10.3390/toxics11100837

>  <Target Organism>
Not applied

$$$$
Compound 1016
Actelion Java MolfileCreator 2.0

  0  0  0  0  0  0              0 V3000
M  V30 BEGIN CTAB
M  V30 COUNTS 20 20 0 0 0
M  V30 BEGIN ATOM
M  V30 1 O 0.0 0.0 0.0 0
M  V30 2 C 1.3005 -0.7448 0.0 0
M  V30 3 O 2.601 0.0 0.0 0
M  V30 4 C 1.3005 -2.2463 0.0 0
M  V30 5 C 3.9015 -0.7448 0.0 0
M  V30 6 C 0.0 -2.9912 0.0 0
M  V30 7 C 2.601 -2.9912 0.0 0
M  V30 8 C 5.2021 0.0 0.0 0
M  V30 9 C -1.3005 -2.2463 0.0 0
M  V30 10 C 0.0 -4.4927 0.0 0
M  V30 11 C 2.601 -4.4927 0.0 0
M  V30 12 O 6.5026 -0.7566 0.0 0
M  V30 13 C 5.2021 1.5015 0.0 0
M  V30 14 O -2.601 -2.9912 0.0 0
M  V30 15 O -1.3005 -0.7448 0.0 0
M  V30 16 C 1.3005 -5.2375 0.0 0
M  V30 17 C -2.601 0.0 0.0 0
M  V30 18 C -2.601 1.5015 0.0 0
M  V30 19 C -3.9015 2.2463 0.0 0
M  V30 20 C -3.9015 3.7478 0.0 0
M  V30 END ATOM
M  V30 BEGIN BOND
M  V30 1 2 1 2
M  V30 2 1 2 3
M  V30 3 1 2 4
M  V30 4 1 3 5
M  V30 5 2 4 6
M  V30 6 1 4 7
M  V30 7 1 5 8
M  V30 8 1 6 9
M  V30 9 1 6 10
M  V30 10 2 7 11
M  V30 11 2 8 12
M  V30 12 1 8 13
M  V30 13 2 9 14
M  V30 14 1 9 15
M  V30 15 2 10 16
M  V30 16 1 15 17
M  V30 17 1 17 18
M  V30 18 1 18 19
M  V30 19 1 19 20
M  V30 20 1 11 16
M  V30 END BOND
M  V30 END CTAB
M  END
>  <Molecule Name>
Phthalic acid butyl acetonyl ester

>  <Activity Label>
0

>  <SMILES>
CCCCOC(c(cccc1)c1C(OCC(C)=O)=O)=O

>  <Molecular Formula>
C15H18O5

>  <InChIKey>
DVWDLDGNUAVDBF-UHFFFAOYSA-N

>  <Repellency>
Inactive

>  <Reference DOI>
10.3390/toxics11100837

>  <Target Organism>
Not applied

$$$$
Compound 1017
Actelion Java MolfileCreator 2.0

  0  0  0  0  0  0              0 V3000
M  V30 BEGIN CTAB
M  V30 COUNTS 20 20 0 0 0
M  V30 BEGIN ATOM
M  V30 1 O 0.0 0.0 0.0 0
M  V30 2 C 0.0 -1.4998 0.0 0
M  V30 3 O -1.2991 -2.2557 0.0 0
M  V30 4 C 1.2991 -2.2557 0.0 0
M  V30 5 C -2.5982 -1.5117 0.0 0
M  V30 6 C 2.5982 -1.5117 0.0 0
M  V30 7 C -3.8973 -2.2675 0.0 0 CFG=2
M  V30 8 C 3.8973 -2.2675 0.0 0
M  V30 9 O -4.0509 -3.7556 0.0 0
M  V30 10 C -5.2673 -1.6534 0.0 0
M  V30 11 C 5.1964 -1.5235 0.0 0
M  V30 12 C -5.5153 -4.0627 0.0 0
M  V30 13 C -6.2712 -2.7635 0.0 0
M  V30 14 C 6.4956 -2.2793 0.0 0
M  V30 15 C 7.7947 -1.5353 0.0 0
M  V30 16 C 9.0938 -2.2911 0.0 0
M  V30 17 C 10.3929 -1.5471 0.0 0
M  V30 18 C 11.6921 -2.3029 0.0 0
M  V30 19 C 12.9912 -1.5589 0.0 0
M  V30 20 C 14.2903 -2.3148 0.0 0
M  V30 END ATOM
M  V30 BEGIN BOND
M  V30 1 2 1 2
M  V30 2 1 2 3
M  V30 3 1 2 4
M  V30 4 1 3 5
M  V30 5 1 4 6
M  V30 6 1 7 5 CFG=3
M  V30 7 1 6 8
M  V30 8 1 7 9
M  V30 9 1 7 10
M  V30 10 1 8 11
M  V30 11 1 9 12
M  V30 12 1 10 13
M  V30 13 1 11 14
M  V30 14 1 14 15
M  V30 15 1 15 16
M  V30 16 1 16 17
M  V30 17 1 17 18
M  V30 18 1 18 19
M  V30 19 1 19 20
M  V30 20 1 12 13
M  V30 END BOND
M  V30 BEGIN COLLECTION
M  V30 MDLV30/STERAC1 ATOMS=(1 7)
M  V30 END COLLECTION
M  V30 END CTAB
M  END
>  <Molecule Name>
Lauric acid, tetrahydrofurfuryl ester

>  <Activity Label>
0

>  <SMILES>
CCCCCCCCCCCC(OCC1OCCC1)=O

>  <Molecular Formula>
C17H32O3

>  <InChIKey>
FXRIPCVHYXUWMF-UHFFFAOYSA-N

>  <Repellency>
Inactive

>  <Reference DOI>
10.3390/toxics11100837

>  <Target Organism>
Not applied

$$$$
Compound 1018
Actelion Java MolfileCreator 2.0

  0  0  0  0  0  0              0 V3000
M  V30 BEGIN CTAB
M  V30 COUNTS 20 20 0 0 0
M  V30 BEGIN ATOM
M  V30 1 O 0.0 0.0 0.0 0
M  V30 2 N -1.2991 0.7558 0.0 0 CHG=1
M  V30 3 O -2.5982 0.0 0.0 0 CHG=-1
M  V30 4 C -1.2991 2.2557 0.0 0
M  V30 5 C 0.0 3.0115 0.0 0
M  V30 6 C -2.5982 3.0115 0.0 0
M  V30 7 C 0.0 4.5114 0.0 0
M  V30 8 C -2.5982 4.5114 0.0 0
M  V30 9 C 1.2991 5.2554 0.0 0
M  V30 10 C -1.2991 5.2554 0.0 0
M  V30 11 O 2.5982 4.5114 0.0 0
M  V30 12 N 1.2991 6.7553 0.0 0
M  V30 13 C 2.5982 7.4993 0.0 0
M  V30 14 C 0.0 7.4993 0.0 0
M  V30 15 C 3.8973 6.7435 0.0 0
M  V30 16 C -1.2991 6.7435 0.0 0
M  V30 17 C 5.1964 7.4875 0.0 0
M  V30 18 C -2.5982 7.4875 0.0 0
M  V30 19 C 6.4955 6.7317 0.0 0
M  V30 20 C -3.8973 6.7317 0.0 0
M  V30 END ATOM
M  V30 BEGIN BOND
M  V30 1 2 1 2
M  V30 2 1 2 3
M  V30 3 1 2 4
M  V30 4 2 4 5
M  V30 5 1 4 6
M  V30 6 1 5 7
M  V30 7 2 6 8
M  V30 8 1 7 9
M  V30 9 2 7 10
M  V30 10 2 9 11
M  V30 11 1 9 12
M  V30 12 1 12 13
M  V30 13 1 12 14
M  V30 14 1 13 15
M  V30 15 1 14 16
M  V30 16 1 15 17
M  V30 17 1 16 18
M  V30 18 1 17 19
M  V30 19 1 18 20
M  V30 20 1 8 10
M  V30 END BOND
M  V30 END CTAB
M  END
>  <Molecule Name>
N, N-Dibutyl-m-nitrobenzamide

>  <Activity Label>
0

>  <SMILES>
CCCCN(CCCC)C(c1cccc([N+]([O-])=O)c1)=O

>  <Molecular Formula>
C15H22N2O3

>  <InChIKey>
DYXQWLWZEBNVLV-UHFFFAOYSA-N

>  <Repellency>
Inactive

>  <Reference DOI>
10.3390/toxics11100837

>  <Target Organism>
Not applied

$$$$
Compound 1019
Actelion Java MolfileCreator 2.0

  0  0  0  0  0  0              0 V3000
M  V30 BEGIN CTAB
M  V30 COUNTS 20 20 0 0 0
M  V30 BEGIN ATOM
M  V30 1 O 0.0 0.0 0.0 0
M  V30 2 N 1.3003 -0.7447 0.0 0 CHG=1
M  V30 3 O 2.6007 0.0 0.0 0 CHG=-1
M  V30 4 C 1.3003 -2.2461 0.0 0
M  V30 5 C 0.0 -2.9909 0.0 0
M  V30 6 C 2.6007 -3.0027 0.0 0
M  V30 7 C 0.0 -4.4922 0.0 0
M  V30 8 C 2.6007 -4.504 0.0 0
M  V30 9 C -1.3003 -5.237 0.0 0
M  V30 10 C 1.3003 -5.237 0.0 0
M  V30 11 O -2.6007 -4.4804 0.0 0
M  V30 12 N -1.3003 -6.7383 0.0 0
M  V30 13 C 0.0 -7.4831 0.0 0
M  V30 14 C -2.6007 -7.4831 0.0 0
M  V30 15 C 0.0 -8.9845 0.0 0
M  V30 16 C -3.9011 -6.7383 0.0 0
M  V30 17 C 1.3003 -9.7292 0.0 0
M  V30 18 C -1.3003 -9.7411 0.0 0
M  V30 19 C -3.9011 -5.237 0.0 0
M  V30 20 C -5.2015 -7.4831 0.0 0
M  V30 END ATOM
M  V30 BEGIN BOND
M  V30 1 2 1 2
M  V30 2 1 2 3
M  V30 3 1 2 4
M  V30 4 2 4 5
M  V30 5 1 4 6
M  V30 6 1 5 7
M  V30 7 2 6 8
M  V30 8 1 7 9
M  V30 9 2 7 10
M  V30 10 2 9 11
M  V30 11 1 9 12
M  V30 12 1 12 13
M  V30 13 1 12 14
M  V30 14 1 13 15
M  V30 15 1 14 16
M  V30 16 1 15 17
M  V30 17 1 15 18
M  V30 18 1 16 19
M  V30 19 1 16 20
M  V30 20 1 8 10
M  V30 END BOND
M  V30 END CTAB
M  END
>  <Molecule Name>
N,N-Di-iso-butyl-m-nitrobenzamide

>  <Activity Label>
0

>  <SMILES>
CC(C)CN(CC(C)C)C(c1cccc([N+]([O-])=O)c1)=O

>  <Molecular Formula>
C15H22N2O3

>  <InChIKey>
ZBKDSVUUADGUBH-UHFFFAOYSA-N

>  <Repellency>
Inactive

>  <Reference DOI>
10.3390/toxics11100837

>  <Target Organism>
Not applied

$$$$
Compound 1020
Actelion Java MolfileCreator 2.0

  0  0  0  0  0  0              0 V3000
M  V30 BEGIN CTAB
M  V30 COUNTS 20 20 0 0 0
M  V30 BEGIN ATOM
M  V30 1 O 0.0 0.0 0.0 0
M  V30 2 C 0.0 -1.5022 0.0 0
M  V30 3 N 1.3011 -2.2474 0.0 0
M  V30 4 C -1.3011 -2.2474 0.0 0
M  V30 5 C 1.3011 -3.7496 0.0 0
M  V30 6 C 2.6023 -1.5022 0.0 0
M  V30 7 C -2.6023 -1.5022 0.0 0
M  V30 8 C 0.0 -4.4948 0.0 0
M  V30 9 C 2.6023 -4.4948 0.0 0
M  V30 10 C 3.9034 -2.2474 0.0 0
M  V30 11 C -3.9034 -2.2474 0.0 0
M  V30 12 C 0.0 -5.9971 0.0 0
M  V30 13 C 2.6023 -5.9971 0.0 0
M  V30 14 C -5.2046 -1.5022 0.0 0
M  V30 15 C 1.3011 -6.7423 0.0 0
M  V30 16 C -6.5057 -2.2474 0.0 0
M  V30 17 C -7.8069 -1.5022 0.0 0
M  V30 18 C -9.108 -2.2474 0.0 0
M  V30 19 C -10.4092 -1.5022 0.0 0
M  V30 20 C -11.7103 -2.2474 0.0 0
M  V30 END ATOM
M  V30 BEGIN BOND
M  V30 1 2 1 2
M  V30 2 1 2 3
M  V30 3 1 2 4
M  V30 4 1 3 5
M  V30 5 1 3 6
M  V30 6 1 4 7
M  V30 7 2 5 8
M  V30 8 1 5 9
M  V30 9 1 6 10
M  V30 10 1 7 11
M  V30 11 1 8 12
M  V30 12 2 9 13
M  V30 13 1 11 14
M  V30 14 2 12 15
M  V30 15 1 14 16
M  V30 16 1 16 17
M  V30 17 1 17 18
M  V30 18 1 18 19
M  V30 19 1 19 20
M  V30 20 1 13 15
M  V30 END BOND
M  V30 END CTAB
M  END
>  <Molecule Name>
N-Ethyl-N-phenyl-n-decanamide

>  <Activity Label>
0

>  <SMILES>
CCCCCCCCCC(N(CC)c1ccccc1)=O

>  <Molecular Formula>
C18H29NO

>  <InChIKey>
HDPRVLQOPBAXNT-UHFFFAOYSA-N

>  <Repellency>
Inactive

>  <Reference DOI>
10.3390/toxics11100837

>  <Target Organism>
Not applied

$$$$
Compound 1021
Actelion Java MolfileCreator 2.0

  0  0  0  0  0  0              0 V3000
M  V30 BEGIN CTAB
M  V30 COUNTS 20 18 0 0 0
M  V30 BEGIN ATOM
M  V30 1 O 0.0 0.0 0.0 0
M  V30 2 C 0.0 1.5007 0.0 0
M  V30 3 O 1.2998 2.2569 0.0 0
M  V30 4 C -1.2998 2.2569 0.0 0
M  V30 5 C -2.5996 1.5007 0.0 0
M  V30 6 C -3.8994 2.2451 0.0 0
M  V30 7 O 5.9555 5.1047 0.0 0
M  V30 8 C 4.4548 5.1047 0.0 0
M  V30 9 O 3.7104 6.4045 0.0 0
M  V30 10 C 3.7104 3.8049 0.0 0
M  V30 11 C 4.4548 2.5051 0.0 0
M  V30 12 C 3.7104 1.2052 0.0 0
M  V30 13 O -3.9703 4.632 0.0 0
M  V30 14 C -3.2141 5.9319 0.0 0
M  V30 15 C -1.7134 5.9319 0.0 0
M  V30 16 C -0.9689 4.632 0.0 0
M  V30 17 C -0.9689 7.2317 0.0 0
M  V30 18 C 0.5317 4.632 0.0 0
M  V30 19 C 0.5317 7.2317 0.0 0
M  V30 20 C 1.2761 5.9319 0.0 0
M  V30 END ATOM
M  V30 BEGIN BOND
M  V30 1 2 1 2
M  V30 2 1 2 3
M  V30 3 1 2 4
M  V30 4 1 4 5
M  V30 5 1 5 6
M  V30 6 2 7 8
M  V30 7 1 8 9
M  V30 8 1 8 10
M  V30 9 1 10 11
M  V30 10 1 11 12
M  V30 11 2 13 14
M  V30 12 1 14 15
M  V30 13 2 15 16
M  V30 14 1 15 17
M  V30 15 1 16 18
M  V30 16 2 17 19
M  V30 17 2 18 20
M  V30 18 1 19 20
M  V30 END BOND
M  V30 END CTAB
M  END
>  <Molecule Name>
Benzaldehyde, di-n-butyrate

>  <Activity Label>
0

>  <SMILES>
CCCC(O)=O.CCCC(O)=O.O=Cc1ccccc1

>  <Molecular Formula>
C4H8O2.C4H8O2.C7H6O

>  <InChIKey>
SHYQOWWGDLYBRR-UHFFFAOYSA-N

>  <Repellency>
Inactive

>  <Reference DOI>
10.3390/toxics11100837

>  <Target Organism>
Not applied

$$$$
Compound 1022
Actelion Java MolfileCreator 2.0

  0  0  0  0  0  0              0 V3000
M  V30 BEGIN CTAB
M  V30 COUNTS 20 22 0 0 0
M  V30 BEGIN ATOM
M  V30 1 O 0.0 0.0 0.0 0
M  V30 2 C 0.0 -1.4992 0.0 0
M  V30 3 O -1.2985 -2.2547 0.0 0
M  V30 4 C 1.2985 -2.2547 0.0 0
M  V30 5 C -2.597 -1.511 0.0 0
M  V30 6 C 1.2985 -3.7539 0.0 0
M  V30 7 C 2.597 -1.511 0.0 0
M  V30 8 C -3.8956 -2.2665 0.0 0
M  V30 9 C 2.597 -4.5094 0.0 0
M  V30 10 C 3.8956 -2.2665 0.0 0
M  V30 11 C -3.8956 -3.7657 0.0 0
M  V30 12 C -5.1941 -1.511 0.0 0
M  V30 13 C 3.8956 -3.7657 0.0 0
M  V30 14 C -5.1941 -4.5094 0.0 0
M  V30 15 C -2.597 -4.5212 0.0 0
M  V30 16 C -6.4926 -2.2547 0.0 0
M  V30 17 C -6.4926 -3.7657 0.0 0
M  V30 18 C -5.1941 -6.0086 0.0 0
M  V30 19 C -2.597 -6.0204 0.0 0
M  V30 20 C -3.8956 -6.7641 0.0 0
M  V30 END ATOM
M  V30 BEGIN BOND
M  V30 1 2 1 2
M  V30 2 1 2 3
M  V30 3 1 2 4
M  V30 4 1 3 5
M  V30 5 2 4 6
M  V30 6 1 4 7
M  V30 7 1 5 8
M  V30 8 1 6 9
M  V30 9 2 7 10
M  V30 10 1 8 11
M  V30 11 2 8 12
M  V30 12 2 9 13
M  V30 13 2 11 14
M  V30 14 1 11 15
M  V30 15 1 12 16
M  V30 16 1 14 17
M  V30 17 1 14 18
M  V30 18 2 15 19
M  V30 19 2 18 20
M  V30 20 1 10 13
M  V30 21 2 16 17
M  V30 22 1 19 20
M  V30 END BOND
M  V30 END CTAB
M  END
>  <Molecule Name>
Benzoic acid, 1-naphthylmethyl ester

>  <Activity Label>
0

>  <SMILES>
O=C(c1ccccc1)OCc1cccc2c1cccc2

>  <Molecular Formula>
C18H14O2

>  <InChIKey>
GTIYNZXGIAGLFB-UHFFFAOYSA-N

>  <Repellency>
Inactive

>  <Reference DOI>
10.3390/toxics11100837

>  <Target Organism>
Not applied

$$$$
Compound 1023
Actelion Java MolfileCreator 2.0

  0  0  0  0  0  0              0 V3000
M  V30 BEGIN CTAB
M  V30 COUNTS 20 22 0 0 0
M  V30 BEGIN ATOM
M  V30 1 O 0.0 0.0 0.0 0
M  V30 2 C 1.2857 -0.748 0.0 0
M  V30 3 O 2.6532 0.3506 0.0 0
M  V30 4 C 1.2857 -2.2324 0.0 0
M  V30 5 C 3.8571 -0.748 0.0 0
M  V30 6 C 1.2857 -3.7169 0.0 0
M  V30 7 C 2.5714 -1.4961 0.0 0
M  V30 8 C 0.0 -1.4961 0.0 0
M  V30 9 C 2.5714 -4.4649 0.0 0
M  V30 10 C 0.0 -4.4649 0.0 0
M  V30 11 C 3.8571 -2.2324 0.0 0
M  V30 12 C 2.5831 -0.187 0.0 0
M  V30 13 C -1.2857 -2.2441 0.0 0
M  V30 14 C 2.5714 -5.9493 0.0 0
M  V30 15 C 3.8571 -3.7169 0.0 0
M  V30 16 C 0.0 -5.9493 0.0 0
M  V30 17 C 5.1428 -1.4961 0.0 0
M  V30 18 C 3.8571 0.7363 0.0 0
M  V30 19 C 1.2857 -6.6974 0.0 0
M  V30 20 C 5.1428 -0.0116 0.0 0
M  V30 END ATOM
M  V30 BEGIN BOND
M  V30 1 2 1 2
M  V30 2 1 2 3
M  V30 3 1 2 4
M  V30 4 1 3 5
M  V30 5 1 4 6
M  V30 6 1 4 7
M  V30 7 1 4 8
M  V30 8 2 6 9
M  V30 9 1 6 10
M  V30 10 2 7 11
M  V30 11 1 7 12
M  V30 12 1 8 13
M  V30 13 1 9 14
M  V30 14 1 9 15
M  V30 15 2 10 16
M  V30 16 1 11 17
M  V30 17 2 12 18
M  V30 18 2 14 19
M  V30 19 2 17 20
M  V30 20 1 11 15
M  V30 21 1 16 19
M  V30 22 1 18 20
M  V30 END BOND
M  V30 END CTAB
M  END
>  <Molecule Name>
9-Ethyl-9-carbomethoxy-9,10-dihydroanthracene

>  <Activity Label>
0

>  <SMILES>
CCC(C(OC)=O)(c1c(C2)cccc1)c1c2cccc1

>  <Molecular Formula>
C18H18O2

>  <InChIKey>
CYYOSWHCNISRLF-UHFFFAOYSA-N

>  <Repellency>
Inactive

>  <Reference DOI>
10.3390/toxics11100837

>  <Target Organism>
Not applied

$$$$
Compound 1024
Actelion Java MolfileCreator 2.0

  0  0  0  0  0  0              0 V3000
M  V30 BEGIN CTAB
M  V30 COUNTS 20 22 0 0 0
M  V30 BEGIN ATOM
M  V30 1 O 0.0 0.0 0.0 0
M  V30 2 C 0.0 1.4244 0.0 0
M  V30 3 O -1.2315 2.1366 0.0 0
M  V30 4 C 1.2315 2.1366 0.0 0
M  V30 5 C -2.463 1.4244 0.0 0
M  V30 6 C 2.463 1.4244 0.0 0
M  V30 7 C 1.2315 3.561 0.0 0
M  V30 8 C -3.7539 2.003 0.0 0
M  V30 9 C -2.6114 0.0148 0.0 0
M  V30 10 O 2.463 0.0 0.0 0
M  V30 11 C 3.6945 2.1366 0.0 0
M  V30 12 C 2.463 4.2732 0.0 0
M  V30 13 C -4.7035 0.9496 0.0 0
M  V30 14 C -5.5641 1.9882 0.0 0
M  V30 15 C -3.5462 3.4126 0.0 0
M  V30 16 C -4.0061 -0.2819 0.0 0
M  V30 17 C 3.6945 3.561 0.0 0
M  V30 18 C -6.1279 1.8102 0.0 0
M  V30 19 C -6.2763 0.4006 0.0 0
M  V30 20 C -5.757 0.1038 0.0 0
M  V30 END ATOM
M  V30 BEGIN BOND
M  V30 1 2 1 2
M  V30 2 1 2 3
M  V30 3 1 2 4
M  V30 4 1 3 5
M  V30 5 2 4 6
M  V30 6 1 4 7
M  V30 7 1 5 8
M  V30 8 1 5 9
M  V30 9 1 6 10
M  V30 10 1 6 11
M  V30 11 2 7 12
M  V30 12 1 8 13
M  V30 13 1 8 14
M  V30 14 1 8 15
M  V30 15 1 9 16
M  V30 16 2 11 17
M  V30 17 1 13 18
M  V30 18 1 13 19
M  V30 19 1 14 20
M  V30 20 1 12 17
M  V30 21 1 13 16
M  V30 22 1 16 20
M  V30 END BOND
M  V30 END CTAB
M  END
>  <Molecule Name>
Salicylic acid, bornyl ester

>  <Activity Label>
0

>  <SMILES>
CC(C)(C(CC1)C2)C1(C)C2OC(c(cccc1)c1O)=O

>  <Molecular Formula>
C17H22O3

>  <InChIKey>
GAZVSNAEUUUDEK-UHFFFAOYSA-N

>  <Repellency>
Inactive

>  <Reference DOI>
10.3390/toxics11100837

>  <Target Organism>
Not applied

$$$$
Compound 1025
Actelion Java MolfileCreator 2.0

  0  0  0  0  0  0              0 V3000
M  V30 BEGIN CTAB
M  V30 COUNTS 20 21 0 0 0
M  V30 BEGIN ATOM
M  V30 1 O 0.0 0.0 0.0 0
M  V30 2 C 0.0 1.5008 0.0 0
M  V30 3 O -1.2999 2.2453 0.0 0
M  V30 4 C 1.2999 2.2453 0.0 0
M  V30 5 C -2.5999 1.5008 0.0 0
M  V30 6 C 2.5999 1.489 0.0 0
M  V30 7 C 1.2999 3.7462 0.0 0
M  V30 8 C -3.8998 2.2453 0.0 0
M  V30 9 O 2.5999 -0.0118 0.0 0
M  V30 10 C 3.8998 2.2335 0.0 0
M  V30 11 C 2.5999 4.4907 0.0 0
M  V30 12 O -5.1998 1.5008 0.0 0
M  V30 13 C 3.8998 3.7344 0.0 0
M  V30 14 C -6.4998 2.2453 0.0 0
M  V30 15 C -7.7997 1.5008 0.0 0
M  V30 16 C -9.0997 2.2572 0.0 0
M  V30 17 C -7.7997 0.0 0.0 0
M  V30 18 C -10.3997 1.5126 0.0 0
M  V30 19 C -9.0997 -0.7445 0.0 0
M  V30 20 C -10.3997 0.0118 0.0 0
M  V30 END ATOM
M  V30 BEGIN BOND
M  V30 1 2 1 2
M  V30 2 1 2 3
M  V30 3 1 2 4
M  V30 4 1 3 5
M  V30 5 2 4 6
M  V30 6 1 4 7
M  V30 7 1 5 8
M  V30 8 1 6 9
M  V30 9 1 6 10
M  V30 10 2 7 11
M  V30 11 1 8 12
M  V30 12 2 10 13
M  V30 13 1 12 14
M  V30 14 1 14 15
M  V30 15 2 15 16
M  V30 16 1 15 17
M  V30 17 1 16 18
M  V30 18 2 17 19
M  V30 19 2 18 20
M  V30 20 1 11 13
M  V30 21 1 19 20
M  V30 END BOND
M  V30 END CTAB
M  END
>  <Molecule Name>
Salicylic acid, beta-benzyloxyethyl ester

>  <Activity Label>
0

>  <SMILES>
Oc(cccc1)c1C(OCCOCc1ccccc1)=O

>  <Molecular Formula>
C16H16O4

>  <InChIKey>
OJGUYBFDLUFPJR-UHFFFAOYSA-N

>  <Repellency>
Inactive

>  <Reference DOI>
10.3390/toxics11100837

>  <Target Organism>
Not applied

$$$$
Compound 1026
Actelion Java MolfileCreator 2.0

  0  0  0  0  0  0              0 V3000
M  V30 BEGIN CTAB
M  V30 COUNTS 20 21 0 0 0
M  V30 BEGIN ATOM
M  V30 1 O 0.0 0.0 0.0 0
M  V30 2 C 0.0 -1.5004 0.0 0
M  V30 3 O -1.2996 -2.2447 0.0 0
M  V30 4 C 1.2996 -2.2447 0.0 0
M  V30 5 C -2.5992 -1.5004 0.0 0
M  V30 6 C 2.5992 -1.5004 0.0 0
M  V30 7 C 1.2996 -3.7452 0.0 0
M  V30 8 C -3.8988 -2.2447 0.0 0
M  V30 9 C 2.5992 0.0 0.0 0
M  V30 10 C 3.8988 -2.2565 0.0 0
M  V30 11 C 2.5992 -4.5013 0.0 0
M  V30 12 C -5.1984 -1.4886 0.0 0
M  V30 13 C -3.8988 -3.7452 0.0 0
M  V30 14 O 1.2996 0.7561 0.0 0
M  V30 15 O 3.8988 0.7443 0.0 0
M  V30 16 C 3.8988 -3.757 0.0 0
M  V30 17 C -6.498 -2.2329 0.0 0
M  V30 18 C -5.1984 -4.4895 0.0 0
M  V30 19 C 3.8988 2.2447 0.0 0
M  V30 20 C -6.498 -3.7334 0.0 0
M  V30 END ATOM
M  V30 BEGIN BOND
M  V30 1 2 1 2
M  V30 2 1 2 3
M  V30 3 1 2 4
M  V30 4 1 3 5
M  V30 5 2 4 6
M  V30 6 1 4 7
M  V30 7 1 5 8
M  V30 8 1 6 9
M  V30 9 1 6 10
M  V30 10 2 7 11
M  V30 11 2 8 12
M  V30 12 1 8 13
M  V30 13 2 9 14
M  V30 14 1 9 15
M  V30 15 2 10 16
M  V30 16 1 12 17
M  V30 17 2 13 18
M  V30 18 1 15 19
M  V30 19 2 17 20
M  V30 20 1 11 16
M  V30 21 1 18 20
M  V30 END BOND
M  V30 END CTAB
M  END
>  <Molecule Name>
Phthalic acid, methyl benzyl ester

>  <Activity Label>
0

>  <SMILES>
COC(c(cccc1)c1C(OCc1ccccc1)=O)=O

>  <Molecular Formula>
C16H14O4

>  <InChIKey>
AKKMBTJVARDPMB-UHFFFAOYSA-N

>  <Repellency>
Inactive

>  <Reference DOI>
10.3390/toxics11100837

>  <Target Organism>
Not applied

$$$$
Compound 1027
Actelion Java MolfileCreator 2.0

  0  0  0  0  0  0              0 V3000
M  V30 BEGIN CTAB
M  V30 COUNTS 20 21 0 0 0
M  V30 BEGIN ATOM
M  V30 1 O 0.0 0.0 0.0 0
M  V30 2 C 0.0 1.4998 0.0 0
M  V30 3 O -1.2991 2.2439 0.0 0
M  V30 4 C 1.2991 2.2439 0.0 0
M  V30 5 C -2.5982 1.488 0.0 0
M  V30 6 C 2.5982 1.4998 0.0 0
M  V30 7 C 1.2991 3.7438 0.0 0
M  V30 8 C -2.5982 -0.0118 0.0 0
M  V30 9 C -3.8973 2.2321 0.0 0
M  V30 10 C -2.5982 2.9879 0.0 0
M  V30 11 C 2.5982 0.0 0.0 0
M  V30 12 C 3.8973 2.2557 0.0 0
M  V30 13 C 2.5982 4.4996 0.0 0
M  V30 14 C -3.8973 -0.7676 0.0 0
M  V30 15 C -5.1964 1.4762 0.0 0
M  V30 16 C -1.2991 3.7438 0.0 0
M  V30 17 O 1.2991 -0.7558 0.0 0
M  V30 18 O 3.8973 -0.744 0.0 0 CHG=-1
M  V30 19 C 3.8973 3.7556 0.0 0
M  V30 20 C -5.1964 -0.0236 0.0 0
M  V30 END ATOM
M  V30 BEGIN BOND
M  V30 1 2 1 2
M  V30 2 1 2 3
M  V30 3 1 2 4
M  V30 4 1 3 5
M  V30 5 2 4 6
M  V30 6 1 4 7
M  V30 7 1 5 8
M  V30 8 1 5 9
M  V30 9 1 5 10
M  V30 10 1 6 11
M  V30 11 1 6 12
M  V30 12 2 7 13
M  V30 13 1 8 14
M  V30 14 1 9 15
M  V30 15 1 10 16
M  V30 16 2 11 17
M  V30 17 1 11 18
M  V30 18 2 12 19
M  V30 19 1 14 20
M  V30 20 1 13 19
M  V30 21 1 15 20
M  V30 END BOND
M  V30 END CTAB
M  END
>  <Molecule Name>
Phthalic acid, ethyl-cyclohexyl ester

>  <Activity Label>
0

>  <SMILES>
CCC1(CCCCC1)OC(c(cccc1)c1C([O-])=O)=O

>  <Molecular Formula>
C16H19O4

>  <InChIKey>
RHPQEICCONKBDX-UHFFFAOYSA-M

>  <Repellency>
Inactive

>  <Reference DOI>
10.3390/toxics11100837

>  <Target Organism>
Not applied

$$$$
Compound 1028
Actelion Java MolfileCreator 2.0

  0  0  0  0  0  0              0 V3000
M  V30 BEGIN CTAB
M  V30 COUNTS 20 21 0 0 0
M  V30 BEGIN ATOM
M  V30 1 O 0.0 0.0 0.0 0
M  V30 2 C 0.0 -1.4997 0.0 0
M  V30 3 O -1.2989 -2.2555 0.0 0
M  V30 4 C 1.2989 -2.2555 0.0 0
M  V30 5 C -2.5979 -1.5115 0.0 0
M  V30 6 C 2.5979 -1.5115 0.0 0
M  V30 7 C 1.2989 -3.7552 0.0 0
M  V30 8 C -3.8969 -2.2673 0.0 0
M  V30 9 C 3.8969 -2.2673 0.0 0
M  V30 10 C 2.5979 -0.0118 0.0 0
M  V30 11 C 0.0 -4.4992 0.0 0
M  V30 12 C 2.5979 -4.511 0.0 0
M  V30 13 C -5.1959 -1.5233 0.0 0
M  V30 14 C 5.1959 -1.5233 0.0 0
M  V30 15 C 3.8969 0.7321 0.0 0
M  V30 16 C 0.0 -5.9989 0.0 0
M  V30 17 C 2.5979 -6.0107 0.0 0
M  V30 18 C -6.4949 -2.2791 0.0 0
M  V30 19 C 5.1959 -0.0236 0.0 0
M  V30 20 C 1.2989 -6.7547 0.0 0
M  V30 END ATOM
M  V30 BEGIN BOND
M  V30 1 2 1 2
M  V30 2 1 2 3
M  V30 3 1 2 4
M  V30 4 1 3 5
M  V30 5 1 4 6
M  V30 6 1 4 7
M  V30 7 1 5 8
M  V30 8 2 6 9
M  V30 9 1 6 10
M  V30 10 2 7 11
M  V30 11 1 7 12
M  V30 12 1 8 13
M  V30 13 1 9 14
M  V30 14 2 10 15
M  V30 15 1 11 16
M  V30 16 2 12 17
M  V30 17 1 13 18
M  V30 18 2 14 19
M  V30 19 2 16 20
M  V30 20 1 15 19
M  V30 21 1 17 20
M  V30 END BOND
M  V30 END CTAB
M  END
>  <Molecule Name>
Diphenylacetic acid, n-butyl ester

>  <Activity Label>
0

>  <SMILES>
CCCCOC(C(c1ccccc1)c1ccccc1)=O

>  <Molecular Formula>
C18H20O2

>  <InChIKey>
YLMKZJDAFXCHFM-UHFFFAOYSA-N

>  <Repellency>
Inactive

>  <Reference DOI>
10.3390/toxics11100837

>  <Target Organism>
Not applied

$$$$
Compound 1029
Actelion Java MolfileCreator 2.0

  0  0  0  0  0  0              0 V3000
M  V30 BEGIN CTAB
M  V30 COUNTS 20 21 0 0 0
M  V30 BEGIN ATOM
M  V30 1 O 0.0 0.0 0.0 0
M  V30 2 C 0.0 1.5008 0.0 0
M  V30 3 O -1.2999 2.2453 0.0 0
M  V30 4 C 1.2999 2.2453 0.0 0
M  V30 5 C -2.5999 1.5008 0.0 0
M  V30 6 C 2.5999 1.489 0.0 0
M  V30 7 C 1.2999 3.7462 0.0 0
M  V30 8 C -3.8998 2.2453 0.0 0
M  V30 9 C 3.8998 2.2335 0.0 0
M  V30 10 C 2.5999 4.4907 0.0 0
M  V30 11 O -5.1998 1.5008 0.0 0
M  V30 12 C 3.8998 3.7344 0.0 0
M  V30 13 C -6.4998 2.2453 0.0 0 CFG=2
M  V30 14 C -7.7997 1.5008 0.0 0
M  V30 15 C -6.4998 3.7462 0.0 0
M  V30 16 C -9.0997 2.2572 0.0 0
M  V30 17 C -7.7997 0.0 0.0 0
M  V30 18 C -10.3997 1.5126 0.0 0
M  V30 19 C -9.0997 -0.7445 0.0 0
M  V30 20 C -10.3997 0.0118 0.0 0
M  V30 END ATOM
M  V30 BEGIN BOND
M  V30 1 2 1 2
M  V30 2 1 2 3
M  V30 3 1 2 4
M  V30 4 1 3 5
M  V30 5 2 4 6
M  V30 6 1 4 7
M  V30 7 1 5 8
M  V30 8 1 6 9
M  V30 9 2 7 10
M  V30 10 1 8 11
M  V30 11 2 9 12
M  V30 12 1 11 13
M  V30 13 1 13 14
M  V30 14 1 13 15 CFG=3
M  V30 15 2 14 16
M  V30 16 1 14 17
M  V30 17 1 16 18
M  V30 18 2 17 19
M  V30 19 2 18 20
M  V30 20 1 10 12
M  V30 21 1 19 20
M  V30 END BOND
M  V30 BEGIN COLLECTION
M  V30 MDLV30/STERAC1 ATOMS=(1 13)
M  V30 END COLLECTION
M  V30 END CTAB
M  END
>  <Molecule Name>
Benzoic acid, 2-(1-phenylethoxy)-ethyl ester

>  <Activity Label>
0

>  <SMILES>
CC(c1ccccc1)OCCOC(c1ccccc1)=O

>  <Molecular Formula>
C17H18O3

>  <InChIKey>
UWSJTCHSMKVYLO-UHFFFAOYSA-N

>  <Repellency>
Inactive

>  <Reference DOI>
10.3390/toxics11100837

>  <Target Organism>
Not applied

$$$$
Compound 1030
Actelion Java MolfileCreator 2.0

  0  0  0  0  0  0              0 V3000
M  V30 BEGIN CTAB
M  V30 COUNTS 20 21 0 0 0
M  V30 BEGIN ATOM
M  V30 1 O 0.0 0.0 0.0 0
M  V30 2 C 1.2982 -0.7553 0.0 0
M  V30 3 O 1.2982 -2.2542 0.0 0
M  V30 4 C 2.5965 -0.0118 0.0 0
M  V30 5 C 0.0 -3.0096 0.0 0
M  V30 6 C 2.5965 1.487 0.0 0
M  V30 7 C 3.8947 -0.7671 0.0 0
M  V30 8 C 0.0 -4.5085 0.0 0
M  V30 9 C -1.2982 -2.2542 0.0 0
M  V30 10 O 1.2982 2.2424 0.0 0
M  V30 11 C 3.8947 2.2306 0.0 0
M  V30 12 C 5.193 -0.0236 0.0 0
M  V30 13 C 1.2982 -5.2638 0.0 0
M  V30 14 C -1.2982 -5.252 0.0 0
M  V30 15 C -2.5965 -2.9978 0.0 0
M  V30 16 C 5.193 1.487 0.0 0
M  V30 17 C 1.2982 -6.7627 0.0 0
M  V30 18 C 2.5965 -4.5203 0.0 0
M  V30 19 C -2.5965 -4.5085 0.0 0
M  V30 20 C -3.8947 -2.2424 0.0 0
M  V30 END ATOM
M  V30 BEGIN BOND
M  V30 1 2 1 2
M  V30 2 1 2 3
M  V30 3 1 2 4
M  V30 4 1 3 5
M  V30 5 2 4 6
M  V30 6 1 4 7
M  V30 7 1 5 8
M  V30 8 1 5 9
M  V30 9 1 6 10
M  V30 10 1 6 11
M  V30 11 2 7 12
M  V30 12 1 8 13
M  V30 13 1 8 14
M  V30 14 1 9 15
M  V30 15 2 11 16
M  V30 16 1 13 17
M  V30 17 1 13 18
M  V30 18 1 14 19
M  V30 19 1 15 20
M  V30 20 1 12 16
M  V30 21 1 15 19
M  V30 END BOND
M  V30 END CTAB
M  END
>  <Molecule Name>
Salicylic acid, menthyl ester

>  <Activity Label>
0

>  <SMILES>
CC(C)C(CCC(C)C1)C1OC(c(cccc1)c1O)=O

>  <Molecular Formula>
C17H24O3

>  <InChIKey>
SJOXEWUZWQYCGL-UHFFFAOYSA-N

>  <Repellency>
Inactive

>  <Reference DOI>
10.3390/toxics11100837

>  <Target Organism>
Not applied

$$$$
Compound 1031
Actelion Java MolfileCreator 2.0

  0  0  0  0  0  0              0 V3000
M  V30 BEGIN CTAB
M  V30 COUNTS 20 21 0 0 0
M  V30 BEGIN ATOM
M  V30 1 O 0.0 0.0 0.0 0
M  V30 2 C 0.0 1.5003 0.0 0
M  V30 3 O -1.2994 2.2445 0.0 0
M  V30 4 C 1.2994 2.2445 0.0 0
M  V30 5 C -2.5989 1.5003 0.0 0
M  V30 6 C 2.5989 1.5003 0.0 0
M  V30 7 C 1.2994 3.7448 0.0 0
M  V30 8 C -3.8984 2.2563 0.0 0
M  V30 9 C -2.5989 0.0 0.0 0
M  V30 10 C 3.8984 2.2563 0.0 0
M  V30 11 C 2.5989 4.5009 0.0 0
M  V30 12 O -3.8984 3.7566 0.0 0
M  V30 13 C -5.1979 1.5121 0.0 0
M  V30 14 C -3.8984 -0.7442 0.0 0
M  V30 15 C 3.8984 3.7566 0.0 0
M  V30 16 C -5.1979 4.5127 0.0 0
M  V30 17 C -5.1979 0.0118 0.0 0
M  V30 18 C -6.4973 -0.7324 0.0 0
M  V30 19 C -7.7968 0.0236 0.0 0
M  V30 20 C -9.0963 -0.7206 0.0 0
M  V30 END ATOM
M  V30 BEGIN BOND
M  V30 1 2 1 2
M  V30 2 1 2 3
M  V30 3 1 2 4
M  V30 4 1 3 5
M  V30 5 2 4 6
M  V30 6 1 4 7
M  V30 7 2 5 8
M  V30 8 1 5 9
M  V30 9 1 6 10
M  V30 10 2 7 11
M  V30 11 1 8 12
M  V30 12 1 8 13
M  V30 13 2 9 14
M  V30 14 2 10 15
M  V30 15 1 12 16
M  V30 16 2 13 17
M  V30 17 1 17 18
M  V30 18 2 18 19 CFG=2
M  V30 19 1 19 20
M  V30 20 1 11 15
M  V30 21 1 14 17
M  V30 END BOND
M  V30 END CTAB
M  END
>  <Molecule Name>
Benzoic acid, isoeugenyl ester

>  <Activity Label>
0

>  <SMILES>
CC=Cc(cc1)cc(OC)c1OC(c1ccccc1)=O

>  <Molecular Formula>
C17H16O3

>  <InChIKey>
UREJOPRZQKQYLG-UHFFFAOYSA-N

>  <Repellency>
Inactive

>  <Reference DOI>
10.3390/toxics11100837

>  <Target Organism>
Not applied

$$$$
Compound 1032
Actelion Java MolfileCreator 2.0

  0  0  0  0  0  0              0 V3000
M  V30 BEGIN CTAB
M  V30 COUNTS 20 21 0 0 0
M  V30 BEGIN ATOM
M  V30 1 O 0.0 0.0 0.0 0
M  V30 2 C 1.3002 -0.7564 0.0 0
M  V30 3 C -1.3002 -0.7446 0.0 0
M  V30 4 O 1.3002 -2.2576 0.0 0
M  V30 5 C 2.6004 -0.0118 0.0 0
M  V30 6 C -1.3002 -2.2458 0.0 0
M  V30 7 C -2.6004 0.0118 0.0 0
M  V30 8 C 0.0 -3.0023 0.0 0
M  V30 9 C 2.6004 1.4893 0.0 0
M  V30 10 C 3.9006 -0.7564 0.0 0
M  V30 11 C -2.6004 -2.9904 0.0 0
M  V30 12 C -2.6004 1.5129 0.0 0
M  V30 13 C 3.9006 2.2339 0.0 0
M  V30 14 C 5.2008 -0.0118 0.0 0
M  V30 15 C -2.6004 -4.4916 0.0 0
M  V30 16 C -3.9006 2.2694 0.0 0
M  V30 17 C 5.2008 1.4775 0.0 0
M  V30 18 O 6.501 2.2221 0.0 0
M  V30 19 C 7.8012 1.4775 0.0 0
M  V30 20 C 9.1014 2.2221 0.0 0
M  V30 END ATOM
M  V30 BEGIN BOND
M  V30 1 1 1 2
M  V30 2 1 1 3
M  V30 3 1 2 4
M  V30 4 1 2 5
M  V30 5 1 3 6
M  V30 6 1 3 7
M  V30 7 1 4 8
M  V30 8 2 5 9
M  V30 9 1 5 10
M  V30 10 1 6 11
M  V30 11 1 7 12
M  V30 12 1 9 13
M  V30 13 2 10 14
M  V30 14 1 11 15
M  V30 15 1 12 16
M  V30 16 2 13 17
M  V30 17 1 17 18
M  V30 18 1 18 19
M  V30 19 1 19 20
M  V30 20 1 6 8
M  V30 21 1 14 17
M  V30 END BOND
M  V30 END CTAB
M  END
>  <Molecule Name>
2-(p-Ethoxyphenyl)-5-ethyl-6-n-propyl-1,3-dioxane

>  <Activity Label>
0

>  <SMILES>
CCCC1OC(c(cc2)ccc2OCC)OCC1CC

>  <Molecular Formula>
C17H26O3

>  <InChIKey>
QSGLERBNFNPYRB-UHFFFAOYSA-N

>  <Repellency>
Inactive

>  <Reference DOI>
10.3390/toxics11100837

>  <Target Organism>
Not applied

$$$$
Compound 1033
Actelion Java MolfileCreator 2.0

  0  0  0  0  0  0              0 V3000
M  V30 BEGIN CTAB
M  V30 COUNTS 20 21 0 0 0
M  V30 BEGIN ATOM
M  V30 1 S 0.0 0.0 0.0 0
M  V30 2 C -1.0027 -1.1089 0.0 0
M  V30 3 C 1.3684 -0.6134 0.0 0
M  V30 4 C -0.2477 -2.4065 0.0 0
M  V30 5 C -2.5009 -1.1089 0.0 0
M  V30 6 N 1.215 -2.0998 0.0 0
M  V30 7 C 2.6661 0.1415 0.0 0
M  V30 8 C -1.0027 -3.7042 0.0 0
M  V30 9 C -3.2559 -2.4065 0.0 0
M  V30 10 C 3.9637 -0.6134 0.0 0
M  V30 11 C -2.5009 -3.7042 0.0 0
M  V30 12 C 5.2614 0.1415 0.0 0
M  V30 13 C 6.5591 -0.6134 0.0 0
M  V30 14 C 7.8567 0.1415 0.0 0
M  V30 15 C 9.1544 -0.6134 0.0 0
M  V30 16 C 10.4521 0.1415 0.0 0
M  V30 17 C 11.7498 -0.6134 0.0 0
M  V30 18 C 13.0474 0.1415 0.0 0
M  V30 19 C 14.3451 -0.6134 0.0 0
M  V30 20 C 15.6428 0.1415 0.0 0
M  V30 END ATOM
M  V30 BEGIN BOND
M  V30 1 1 1 2
M  V30 2 1 1 3
M  V30 3 2 2 4
M  V30 4 1 2 5
M  V30 5 2 3 6
M  V30 6 1 3 7
M  V30 7 1 4 8
M  V30 8 2 5 9
M  V30 9 1 7 10
M  V30 10 2 8 11
M  V30 11 1 10 12
M  V30 12 1 12 13
M  V30 13 1 13 14
M  V30 14 1 14 15
M  V30 15 1 15 16
M  V30 16 1 16 17
M  V30 17 1 17 18
M  V30 18 1 18 19
M  V30 19 1 19 20
M  V30 20 1 4 6
M  V30 21 1 9 11
M  V30 END BOND
M  V30 END CTAB
M  END
>  <Molecule Name>
2-Undecyl benzothiazole

>  <Activity Label>
0

>  <SMILES>
CCCCCCCCCCCc1nc(cccc2)c2[s]1

>  <Molecular Formula>
C18H27NS

>  <InChIKey>
LFFYBSKHBKTDIP-UHFFFAOYSA-N

>  <Repellency>
Inactive

>  <Reference DOI>
10.3390/toxics11100837

>  <Target Organism>
Not applied

$$$$
Compound 1034
Actelion Java MolfileCreator 2.0

  0  0  0  0  0  0              0 V3000
M  V30 BEGIN CTAB
M  V30 COUNTS 20 19 0 0 0
M  V30 BEGIN ATOM
M  V30 1 S 0.0 0.0 0.0 0
M  V30 2 C -1.2966 0.7544 0.0 0
M  V30 3 C 1.2966 0.7544 0.0 0
M  V30 4 S -2.5933 0.0 0.0 0
M  V30 5 C -1.2966 2.2514 0.0 0
M  V30 6 C 2.5933 0.0 0.0 0
M  V30 7 C -3.8899 0.7544 0.0 0
M  V30 8 C 3.8899 0.7544 0.0 0
M  V30 9 C -5.1866 0.0 0.0 0
M  V30 10 C 5.1866 0.0 0.0 0
M  V30 11 C -6.4833 0.7544 0.0 0
M  V30 12 C 6.4833 0.7544 0.0 0
M  V30 13 C -7.7799 0.0 0.0 0
M  V30 14 C 7.7799 0.0 0.0 0
M  V30 15 C -9.0766 0.7544 0.0 0
M  V30 16 C 9.0766 0.7544 0.0 0
M  V30 17 C -10.3733 0.0 0.0 0
M  V30 18 C 10.3733 0.0 0.0 0
M  V30 19 C -11.6699 0.7544 0.0 0
M  V30 20 C -12.9666 0.0 0.0 0
M  V30 END ATOM
M  V30 BEGIN BOND
M  V30 1 1 1 2
M  V30 2 1 1 3
M  V30 3 1 2 4
M  V30 4 1 2 5
M  V30 5 1 3 6
M  V30 6 1 4 7
M  V30 7 1 6 8
M  V30 8 1 7 9
M  V30 9 1 8 10
M  V30 10 1 9 11
M  V30 11 1 10 12
M  V30 12 1 11 13
M  V30 13 1 12 14
M  V30 14 1 13 15
M  V30 15 1 14 16
M  V30 16 1 15 17
M  V30 17 1 16 18
M  V30 18 1 17 19
M  V30 19 1 19 20
M  V30 END BOND
M  V30 END CTAB
M  END
>  <Molecule Name>
Acetaldehyde dioctyl mercaptal

>  <Activity Label>
0

>  <SMILES>
CCCCCCCCSC(C)SCCCCCCCC

>  <Molecular Formula>
C18H38S2

>  <InChIKey>
LYXWBKDPKHJSQV-UHFFFAOYSA-N

>  <Repellency>
Inactive

>  <Reference DOI>
10.3390/toxics11100837

>  <Target Organism>
Not applied

$$$$
Compound 1035
Actelion Java MolfileCreator 2.0

  0  0  0  0  0  0              0 V3000
M  V30 BEGIN CTAB
M  V30 COUNTS 20 19 0 0 0
M  V30 BEGIN ATOM
M  V30 1 O 0.0 0.0 0.0 0
M  V30 2 C 0.0 1.4998 0.0 0
M  V30 3 O 1.2991 2.2439 0.0 0
M  V30 4 C -1.2991 2.2439 0.0 0
M  V30 5 C 2.5982 1.488 0.0 0
M  V30 6 C -2.5982 1.488 0.0 0
M  V30 7 C 3.8973 2.2321 0.0 0
M  V30 8 C -2.5982 -0.0118 0.0 0
M  V30 9 C 5.1964 1.4762 0.0 0
M  V30 10 O -1.2991 -0.7558 0.0 0
M  V30 11 O -3.8973 -0.7676 0.0 0
M  V30 12 C 6.4955 2.2202 0.0 0
M  V30 13 C -3.8973 -2.2675 0.0 0
M  V30 14 C 7.7946 1.4644 0.0 0
M  V30 15 C -5.1964 -3.0233 0.0 0
M  V30 16 C 9.0937 2.2084 0.0 0
M  V30 17 C -5.1964 -4.5232 0.0 0
M  V30 18 C -6.4955 -5.2791 0.0 0
M  V30 19 C -6.4955 -6.7789 0.0 0
M  V30 20 C -7.7946 -7.523 0.0 0
M  V30 END ATOM
M  V30 BEGIN BOND
M  V30 1 2 1 2
M  V30 2 1 2 3
M  V30 3 1 2 4
M  V30 4 1 3 5
M  V30 5 2 4 6
M  V30 6 1 5 7
M  V30 7 1 6 8
M  V30 8 1 7 9
M  V30 9 2 8 10
M  V30 10 1 8 11
M  V30 11 1 9 12
M  V30 12 1 11 13
M  V30 13 1 12 14
M  V30 14 1 13 15
M  V30 15 1 14 16
M  V30 16 1 15 17
M  V30 17 1 17 18
M  V30 18 1 18 19
M  V30 19 1 19 20
M  V30 END BOND
M  V30 END CTAB
M  END
>  <Molecule Name>
Maleic acid, dihexyl ester

>  <Activity Label>
0

>  <SMILES>
CCCCCCOC(/C=C\C(OCCCCCC)=O)=O

>  <Molecular Formula>
C16H28O4

>  <InChIKey>
QMCVOSQFZZCSLN-QXMHVHEDSA-N

>  <Repellency>
Inactive

>  <Reference DOI>
10.3390/toxics11100837

>  <Target Organism>
Not applied

$$$$
Compound 1036
Actelion Java MolfileCreator 2.0

  0  0  0  0  0  0              0 V3000
M  V30 BEGIN CTAB
M  V30 COUNTS 20 19 0 0 0
M  V30 BEGIN ATOM
M  V30 1 O 0.0 0.0 0.0 0
M  V30 2 C 0.0 -1.4995 0.0 0
M  V30 3 O -1.2988 -2.2552 0.0 0
M  V30 4 C 1.2988 -2.2552 0.0 0 CFG=1
M  V30 5 C -2.5976 -1.5113 0.0 0
M  V30 6 O 2.5976 -1.5113 0.0 0
M  V30 7 C 1.2988 -3.7547 0.0 0
M  V30 8 C -3.8964 -2.267 0.0 0
M  V30 9 C 3.8964 -2.267 0.0 0
M  V30 10 C -5.1953 -1.5231 0.0 0
M  V30 11 O 3.8964 -3.7665 0.0 0
M  V30 12 C 5.1953 -1.5231 0.0 0
M  V30 13 C -6.4941 -2.2788 0.0 0
M  V30 14 C 6.4941 -2.2788 0.0 0
M  V30 15 C 7.7929 -1.5349 0.0 0
M  V30 16 C 9.0917 -2.2906 0.0 0
M  V30 17 C 10.3906 -1.5467 0.0 0
M  V30 18 C 11.6894 -2.3024 0.0 0
M  V30 19 C 12.9882 -1.5585 0.0 0
M  V30 20 C 14.287 -2.3142 0.0 0
M  V30 END ATOM
M  V30 BEGIN BOND
M  V30 1 2 1 2
M  V30 2 1 2 3
M  V30 3 1 2 4
M  V30 4 1 3 5
M  V30 5 1 4 6
M  V30 6 1 4 7 CFG=1
M  V30 7 1 5 8
M  V30 8 1 6 9
M  V30 9 1 8 10
M  V30 10 2 9 11
M  V30 11 1 9 12
M  V30 12 1 10 13
M  V30 13 1 12 14
M  V30 14 1 14 15
M  V30 15 1 15 16
M  V30 16 1 16 17
M  V30 17 1 17 18
M  V30 18 1 18 19
M  V30 19 1 19 20
M  V30 END BOND
M  V30 BEGIN COLLECTION
M  V30 MDLV30/STERAC1 ATOMS=(1 4)
M  V30 END COLLECTION
M  V30 END CTAB
M  END
>  <Molecule Name>
alpha-Pelargonoxypropionic acid, butyl ester

>  <Activity Label>
0

>  <SMILES>
CCCCCCCCC(OC(C)C(OCCCC)=O)=O

>  <Molecular Formula>
C16H30O4

>  <InChIKey>
FPFQRICGVIRKIV-UHFFFAOYSA-N

>  <Repellency>
Inactive

>  <Reference DOI>
10.3390/toxics11100837

>  <Target Organism>
Not applied

$$$$
Compound 1037
Actelion Java MolfileCreator 2.0

  0  0  0  0  0  0              0 V3000
M  V30 BEGIN CTAB
M  V30 COUNTS 20 19 0 0 0
M  V30 BEGIN ATOM
M  V30 1 O 0.0 0.0 0.0 0
M  V30 2 C 0.0 1.5025 0.0 0
M  V30 3 O -1.3013 2.2478 0.0 0
M  V30 4 C 1.3013 2.2478 0.0 0
M  V30 5 C -2.6027 1.5025 0.0 0
M  V30 6 C 2.6027 1.5025 0.0 0
M  V30 7 C -3.9041 2.2478 0.0 0
M  V30 8 C 3.9041 2.2478 0.0 0
M  V30 9 C -5.2055 1.5025 0.0 0
M  V30 10 C 5.2055 1.5025 0.0 0
M  V30 11 C 6.5069 2.2478 0.0 0
M  V30 12 C 7.8082 1.5025 0.0 0
M  V30 13 C 9.1096 2.2478 0.0 0
M  V30 14 C 10.411 1.5025 0.0 0
M  V30 15 C 11.7124 2.2478 0.0 0
M  V30 16 O 11.7124 3.7503 0.0 0
M  V30 17 O 13.0138 1.5025 0.0 0
M  V30 18 C 14.3151 2.2478 0.0 0
M  V30 19 C 15.6165 1.5025 0.0 0
M  V30 20 C 16.9179 2.2478 0.0 0
M  V30 END ATOM
M  V30 BEGIN BOND
M  V30 1 2 1 2
M  V30 2 1 2 3
M  V30 3 1 2 4
M  V30 4 1 3 5
M  V30 5 1 4 6
M  V30 6 1 5 7
M  V30 7 1 6 8
M  V30 8 2 7 9
M  V30 9 1 8 10
M  V30 10 1 10 11
M  V30 11 1 11 12
M  V30 12 1 12 13
M  V30 13 1 13 14
M  V30 14 1 14 15
M  V30 15 2 15 16
M  V30 16 1 15 17
M  V30 17 1 17 18
M  V30 18 1 18 19
M  V30 19 2 19 20
M  V30 END BOND
M  V30 END CTAB
M  END
>  <Molecule Name>
Sebacic acid, diallyl ester

>  <Activity Label>
0

>  <SMILES>
C=CCOC(CCCCCCCCC(OCC=C)=O)=O

>  <Molecular Formula>
C16H26O4

>  <InChIKey>
NUVBFTZPEYQYGI-UHFFFAOYSA-N

>  <Repellency>
Inactive

>  <Reference DOI>
10.3390/toxics11100837

>  <Target Organism>
Not applied

$$$$
Compound 1038
Actelion Java MolfileCreator 2.0

  0  0  0  0  0  0              0 V3000
M  V30 BEGIN CTAB
M  V30 COUNTS 20 19 0 0 0
M  V30 BEGIN ATOM
M  V30 1 O 0.0 0.0 0.0 0
M  V30 2 C 0.0 -1.4995 0.0 0
M  V30 3 O -1.2988 -2.2552 0.0 0
M  V30 4 C 1.2988 -2.2552 0.0 0
M  V30 5 C -2.5976 -1.5113 0.0 0
M  V30 6 C 2.5976 -1.5113 0.0 0
M  V30 7 C -3.8964 -2.267 0.0 0
M  V30 8 C 3.8964 -2.267 0.0 0
M  V30 9 C -5.1952 -1.5231 0.0 0
M  V30 10 C 5.1952 -1.5231 0.0 0
M  V30 11 C -6.494 -2.2788 0.0 0
M  V30 12 C 6.494 -2.2788 0.0 0
M  V30 13 C 7.7928 -1.5349 0.0 0
M  V30 14 C 9.0916 -2.2906 0.0 0
M  V30 15 C 10.3904 -1.5467 0.0 0
M  V30 16 C 11.6893 -2.3024 0.0 0
M  V30 17 C 12.9881 -1.5585 0.0 0
M  V30 18 C 14.2869 -2.3142 0.0 0
M  V30 19 C 15.5857 -1.5703 0.0 0
M  V30 20 C 16.8845 -2.326 0.0 0
M  V30 END ATOM
M  V30 BEGIN BOND
M  V30 1 2 1 2
M  V30 2 1 2 3
M  V30 3 1 2 4
M  V30 4 1 3 5
M  V30 5 1 4 6
M  V30 6 1 5 7
M  V30 7 1 6 8
M  V30 8 1 7 9
M  V30 9 1 8 10
M  V30 10 1 9 11
M  V30 11 1 10 12
M  V30 12 1 12 13
M  V30 13 1 13 14
M  V30 14 1 14 15
M  V30 15 1 15 16
M  V30 16 1 16 17
M  V30 17 1 17 18
M  V30 18 1 18 19
M  V30 19 1 19 20
M  V30 END BOND
M  V30 END CTAB
M  END
>  <Molecule Name>
Tetradecanoic acid, butyl ester

>  <Activity Label>
0

>  <SMILES>
CCCCCCCCCCCCCC(OCCCC)=O

>  <Molecular Formula>
C18H36O2

>  <InChIKey>
DHAZIUXMHRHVMP-UHFFFAOYSA-N

>  <Repellency>
Inactive

>  <Reference DOI>
10.3390/toxics11100837

>  <Target Organism>
Not applied

$$$$
Compound 1039
Actelion Java MolfileCreator 2.0

  0  0  0  0  0  0              0 V3000
M  V30 BEGIN CTAB
M  V30 COUNTS 20 19 0 0 0
M  V30 BEGIN ATOM
M  V30 1 O 0.0 0.0 0.0 0
M  V30 2 C 0.0 -1.4995 0.0 0
M  V30 3 O -1.2988 -2.2552 0.0 0
M  V30 4 C 1.2988 -2.2552 0.0 0
M  V30 5 C -2.5976 -1.5113 0.0 0
M  V30 6 C 2.5976 -1.5113 0.0 0
M  V30 7 C -3.8964 -2.267 0.0 0
M  V30 8 C 3.8964 -2.267 0.0 0
M  V30 9 C 5.1952 -1.5231 0.0 0
M  V30 10 C 6.494 -2.2788 0.0 0
M  V30 11 C 7.7928 -1.5349 0.0 0
M  V30 12 C 9.0916 -2.2906 0.0 0
M  V30 13 C 10.3904 -1.5467 0.0 0
M  V30 14 C 11.6893 -2.3024 0.0 0
M  V30 15 C 12.9881 -1.5585 0.0 0
M  V30 16 C 14.2869 -2.3142 0.0 0
M  V30 17 C 15.5857 -1.5703 0.0 0
M  V30 18 C 16.8845 -2.326 0.0 0
M  V30 19 C 18.1833 -1.5821 0.0 0
M  V30 20 C 19.4821 -2.3378 0.0 0
M  V30 END ATOM
M  V30 BEGIN BOND
M  V30 1 2 1 2
M  V30 2 1 2 3
M  V30 3 1 2 4
M  V30 4 1 3 5
M  V30 5 1 4 6
M  V30 6 1 5 7
M  V30 7 1 6 8
M  V30 8 1 8 9
M  V30 9 1 9 10
M  V30 10 1 10 11
M  V30 11 1 11 12
M  V30 12 1 12 13
M  V30 13 1 13 14
M  V30 14 1 14 15
M  V30 15 1 15 16
M  V30 16 1 16 17
M  V30 17 1 17 18
M  V30 18 1 18 19
M  V30 19 1 19 20
M  V30 END BOND
M  V30 END CTAB
M  END
>  <Molecule Name>
Palmitic acid, ethyl ester

>  <Activity Label>
0

>  <SMILES>
CCCCCCCCCCCCCCCC(OCC)=O

>  <Molecular Formula>
C18H36O2

>  <InChIKey>
XIRNKXNNONJFQO-UHFFFAOYSA-N

>  <Repellency>
Inactive

>  <Reference DOI>
10.3390/toxics11100837

>  <Target Organism>
Not applied

$$$$
Compound 1040
Actelion Java MolfileCreator 2.0

  0  0  0  0  0  0              0 V3000
M  V30 BEGIN CTAB
M  V30 COUNTS 20 19 0 0 0
M  V30 BEGIN ATOM
M  V30 1 O 0.0 0.0 0.0 0
M  V30 2 C 0.0 -1.5026 0.0 0
M  V30 3 O -1.3015 -2.248 0.0 0
M  V30 4 C 1.3015 -2.248 0.0 0
M  V30 5 C -2.603 -1.5026 0.0 0
M  V30 6 C -3.9045 -2.248 0.0 0
M  V30 7 C -5.206 -1.5026 0.0 0
M  V30 8 C -6.5075 -2.248 0.0 0
M  V30 9 C -7.809 -1.5026 0.0 0
M  V30 10 C -9.1105 -2.248 0.0 0
M  V30 11 C -10.412 -1.5026 0.0 0
M  V30 12 C -11.7135 -2.248 0.0 0
M  V30 13 C -13.015 -1.5026 0.0 0
M  V30 14 C -14.3165 -2.248 0.0 0
M  V30 15 C -15.618 -1.5026 0.0 0
M  V30 16 C -16.9196 -2.248 0.0 0
M  V30 17 C -18.2211 -1.5026 0.0 0
M  V30 18 C -19.5226 -2.248 0.0 0
M  V30 19 C -20.8241 -1.5026 0.0 0
M  V30 20 C -22.1256 -2.248 0.0 0
M  V30 END ATOM
M  V30 BEGIN BOND
M  V30 1 2 1 2
M  V30 2 1 2 3
M  V30 3 1 2 4
M  V30 4 1 3 5
M  V30 5 1 5 6
M  V30 6 1 6 7
M  V30 7 1 7 8
M  V30 8 1 8 9
M  V30 9 1 9 10
M  V30 10 1 10 11
M  V30 11 1 11 12
M  V30 12 1 12 13
M  V30 13 1 13 14
M  V30 14 1 14 15
M  V30 15 1 15 16
M  V30 16 1 16 17
M  V30 17 1 17 18
M  V30 18 1 18 19
M  V30 19 1 19 20
M  V30 END BOND
M  V30 END CTAB
M  END
>  <Molecule Name>
Acetic acid, cetyl ester

>  <Activity Label>
0

>  <SMILES>
CCCCCCCCCCCCCCCCOC(C)=O

>  <Molecular Formula>
C18H36O2

>  <InChIKey>
LSTDYDRCKUBPDI-UHFFFAOYSA-N

>  <Repellency>
Inactive

>  <Reference DOI>
10.3390/toxics11100837

>  <Target Organism>
Not applied

$$$$
Compound 1041
Actelion Java MolfileCreator 2.0

  0  0  0  0  0  0              0 V3000
M  V30 BEGIN CTAB
M  V30 COUNTS 20 19 0 0 0
M  V30 BEGIN ATOM
M  V30 1 O 0.0 0.0 0.0 0
M  V30 2 C 0.0 -1.5017 0.0 0
M  V30 3 O -1.3007 -2.2467 0.0 0
M  V30 4 C 1.3007 -2.2467 0.0 0
M  V30 5 C 2.6014 -1.5017 0.0 0
M  V30 6 C 3.9021 -2.2467 0.0 0
M  V30 7 C 5.2029 -1.5017 0.0 0
M  V30 8 C 6.5036 -2.2467 0.0 0
M  V30 9 C 7.8043 -1.5017 0.0 0
M  V30 10 C 9.105 -2.2467 0.0 0
M  V30 11 C 10.4058 -1.5017 0.0 0
M  V30 12 C 11.7065 -2.2467 0.0 0
M  V30 13 C 11.7065 -3.7484 0.0 0
M  V30 14 C 13.0072 -4.4934 0.0 0
M  V30 15 C 13.0072 -5.9951 0.0 0
M  V30 16 C 14.308 -6.7519 0.0 0
M  V30 17 C 14.308 -8.2537 0.0 0
M  V30 18 C 15.6087 -8.9986 0.0 0
M  V30 19 C 15.6087 -10.5004 0.0 0
M  V30 20 C 16.9094 -11.2453 0.0 0
M  V30 END ATOM
M  V30 BEGIN BOND
M  V30 1 2 1 2
M  V30 2 1 2 3
M  V30 3 1 2 4
M  V30 4 1 4 5
M  V30 5 1 5 6
M  V30 6 1 6 7
M  V30 7 1 7 8
M  V30 8 1 8 9
M  V30 9 1 9 10
M  V30 10 1 10 11
M  V30 11 2 11 12
M  V30 12 1 12 13
M  V30 13 1 13 14
M  V30 14 1 14 15
M  V30 15 1 15 16
M  V30 16 1 16 17
M  V30 17 1 17 18
M  V30 18 1 18 19
M  V30 19 1 19 20
M  V30 END BOND
M  V30 END CTAB
M  END
>  <Molecule Name>
Oleic acid

>  <Activity Label>
0

>  <SMILES>
CCCCCCCC/C=C\CCCCCCCC(O)=O

>  <Molecular Formula>
C18H34O2

>  <InChIKey>
ZQPPMHVWECSIRJ-KTKRTIGZSA-N

>  <Repellency>
Inactive

>  <Reference DOI>
10.3390/toxics11100837

>  <Target Organism>
Not applied

$$$$
Compound 1042
Actelion Java MolfileCreator 2.0

  0  0  0  0  0  0              0 V3000
M  V30 BEGIN CTAB
M  V30 COUNTS 20 19 0 0 0
M  V30 BEGIN ATOM
M  V30 1 O 0.0 0.0 0.0 0
M  V30 2 C 0.0 -1.5023 0.0 0
M  V30 3 O -1.3012 -2.2476 0.0 0
M  V30 4 C 1.3012 -2.2476 0.0 0
M  V30 5 C -2.6025 -1.5023 0.0 0
M  V30 6 C 2.6025 -1.5023 0.0 0
M  V30 7 C -3.9037 -2.2476 0.0 0
M  V30 8 C 3.9037 -2.2476 0.0 0
M  V30 9 O -3.9037 -3.7499 0.0 0
M  V30 10 O -5.205 -1.5023 0.0 0
M  V30 11 C 5.205 -1.5023 0.0 0
M  V30 12 C -2.6025 -4.4952 0.0 0
M  V30 13 C -6.5062 -2.2476 0.0 0
M  V30 14 C 6.5062 -2.2476 0.0 0
M  V30 15 C 7.8075 -1.5023 0.0 0
M  V30 16 C 9.1087 -2.2476 0.0 0
M  V30 17 C 10.41 -1.5023 0.0 0
M  V30 18 C 11.7112 -2.2476 0.0 0
M  V30 19 O 13.0125 -1.5023 0.0 0
M  V30 20 O 11.7112 -3.7499 0.0 0 CHG=-1
M  V30 END ATOM
M  V30 BEGIN BOND
M  V30 1 2 1 2
M  V30 2 1 2 3
M  V30 3 1 2 4
M  V30 4 1 3 5
M  V30 5 1 4 6
M  V30 6 1 5 7
M  V30 7 1 6 8
M  V30 8 1 7 9
M  V30 9 1 7 10
M  V30 10 1 8 11
M  V30 11 1 9 12
M  V30 12 1 10 13
M  V30 13 1 11 14
M  V30 14 1 14 15
M  V30 15 1 15 16
M  V30 16 1 16 17
M  V30 17 1 17 18
M  V30 18 2 18 19
M  V30 19 1 18 20
M  V30 END BOND
M  V30 END CTAB
M  END
>  <Molecule Name>
Sebacic acid, dimethoxyethyl ester

>  <Activity Label>
0

>  <SMILES>
COC(COC(CCCCCCCCC([O-])=O)=O)OC

>  <Molecular Formula>
C14H25O6

>  <InChIKey>
FDCFUDOQJLDUOE-UHFFFAOYSA-M

>  <Repellency>
Inactive

>  <Reference DOI>
10.3390/toxics11100837

>  <Target Organism>
Not applied

$$$$
Compound 1043
Actelion Java MolfileCreator 2.0

  0  0  0  0  0  0              0 V3000
M  V30 BEGIN CTAB
M  V30 COUNTS 20 19 0 0 0
M  V30 BEGIN ATOM
M  V30 1 O 0.0 0.0 0.0 0
M  V30 2 C -1.3009 -0.7451 0.0 0
M  V30 3 C 1.3009 -0.7451 0.0 0
M  V30 4 O -1.3009 -2.2471 0.0 0
M  V30 5 O -2.6019 0.0 0.0 0
M  V30 6 C 0.0 -1.502 0.0 0
M  V30 7 C 2.6019 0.0 0.0 0
M  V30 8 C -2.6019 -2.9922 0.0 0
M  V30 9 C -3.9029 -0.7451 0.0 0
M  V30 10 C 3.9029 -0.7451 0.0 0
M  V30 11 C -2.6019 -4.4943 0.0 0
M  V30 12 C -5.2039 0.0 0.0 0
M  V30 13 C 5.2039 0.0 0.0 0
M  V30 14 C -3.9029 -5.2394 0.0 0
M  V30 15 C -6.5049 -0.7451 0.0 0
M  V30 16 C 6.5049 -0.7451 0.0 0
M  V30 17 C -3.9029 -6.7414 0.0 0
M  V30 18 C -7.8058 0.0 0.0 0
M  V30 19 C -5.2039 -7.4865 0.0 0
M  V30 20 C -9.1068 -0.7451 0.0 0
M  V30 END ATOM
M  V30 BEGIN BOND
M  V30 1 1 1 2
M  V30 2 1 1 3
M  V30 3 1 2 4
M  V30 4 1 2 5
M  V30 5 1 2 6
M  V30 6 1 3 7
M  V30 7 1 4 8
M  V30 8 1 5 9
M  V30 9 1 7 10
M  V30 10 1 8 11
M  V30 11 1 9 12
M  V30 12 1 10 13
M  V30 13 1 11 14
M  V30 14 1 12 15
M  V30 15 1 13 16
M  V30 16 1 14 17
M  V30 17 1 15 18
M  V30 18 1 17 19
M  V30 19 1 18 20
M  V30 END BOND
M  V30 END CTAB
M  END
>  <Molecule Name>
Orthoacetic acid, triamyl ester

>  <Activity Label>
0

>  <SMILES>
CCCCCOC(C)(OCCCCC)OCCCCC

>  <Molecular Formula>
C17H36O3

>  <InChIKey>
FOGJLSHAKAFJCE-UHFFFAOYSA-N

>  <Repellency>
Inactive

>  <Reference DOI>
10.3390/toxics11100837

>  <Target Organism>
Not applied

$$$$
Compound 1044
Actelion Java MolfileCreator 2.0

  0  0  0  0  0  0              0 V3000
M  V30 BEGIN CTAB
M  V30 COUNTS 20 19 0 0 0
M  V30 BEGIN ATOM
M  V30 1 O 0.0 0.0 0.0 0
M  V30 2 C 0.0 -1.5014 0.0 0
M  V30 3 O -1.3004 -2.2462 0.0 0
M  V30 4 C 1.3004 -2.2462 0.0 0
M  V30 5 C -2.6009 -1.5014 0.0 0
M  V30 6 C 2.6009 -1.5014 0.0 0
M  V30 7 C -3.9013 -2.2462 0.0 0
M  V30 8 C 3.9013 -2.2462 0.0 0
M  V30 9 O 3.9013 -3.7476 0.0 0
M  V30 10 N 5.2018 -1.5014 0.0 0
M  V30 11 C 6.5022 -2.2462 0.0 0
M  V30 12 C 5.2018 0.0 0.0 0
M  V30 13 C 7.8027 -1.5014 0.0 0
M  V30 14 C 6.5022 0.7566 0.0 0
M  V30 15 C 9.1032 -2.2462 0.0 0
M  V30 16 C 6.5022 2.258 0.0 0
M  V30 17 C 10.4036 -1.5014 0.0 0
M  V30 18 C 7.8027 3.0146 0.0 0
M  V30 19 C 11.7041 -2.2462 0.0 0
M  V30 20 C 7.8027 4.5161 0.0 0
M  V30 END ATOM
M  V30 BEGIN BOND
M  V30 1 2 1 2
M  V30 2 1 2 3
M  V30 3 1 2 4
M  V30 4 1 3 5
M  V30 5 1 4 6
M  V30 6 1 5 7
M  V30 7 1 6 8
M  V30 8 2 8 9
M  V30 9 1 8 10
M  V30 10 1 10 11
M  V30 11 1 10 12
M  V30 12 1 11 13
M  V30 13 1 12 14
M  V30 14 1 13 15
M  V30 15 1 14 16
M  V30 16 1 15 17
M  V30 17 1 16 18
M  V30 18 1 17 19
M  V30 19 1 18 20
M  V30 END BOND
M  V30 END CTAB
M  END
>  <Molecule Name>
N,N-Diamylsuccinamic acid, ethyl ester

>  <Activity Label>
0

>  <SMILES>
CCCCCN(CCCCC)C(CCC(OCC)=O)=O

>  <Molecular Formula>
C16H31NO3

>  <InChIKey>
PCCBJWJLYTUNAH-UHFFFAOYSA-N

>  <Repellency>
Inactive

>  <Reference DOI>
10.3390/toxics11100837

>  <Target Organism>
Not applied

$$$$
Compound 1045
Actelion Java MolfileCreator 2.0

  0  0  0  0  0  0              0 V3000
M  V30 BEGIN CTAB
M  V30 COUNTS 21 20 0 0 0
M  V30 BEGIN ATOM
M  V30 1 S 0.0 0.0 0.0 0
M  V30 2 C 1.3004 0.7475 0.0 0
M  V30 3 C -1.3004 0.7475 0.0 0
M  V30 4 C 2.6009 0.0 0.0 0
M  V30 5 C -2.6009 0.0 0.0 0
M  V30 6 C 3.9014 0.7475 0.0 0
M  V30 7 C -3.9014 0.7475 0.0 0
M  V30 8 C 5.2018 0.0 0.0 0
M  V30 9 C -5.2018 0.0 0.0 0
M  V30 10 C 6.5023 0.7475 0.0 0
M  V30 11 C -6.5023 0.7475 0.0 0
M  V30 12 C 7.8028 0.0 0.0 0
M  V30 13 C -7.8028 0.0 0.0 0
M  V30 14 C 9.1032 0.7475 0.0 0
M  V30 15 C -9.1032 0.7475 0.0 0
M  V30 16 C 10.4037 0.0 0.0 0
M  V30 17 C -10.4037 0.0 0.0 0
M  V30 18 C 11.7042 0.7475 0.0 0
M  V30 19 C -11.7042 0.7475 0.0 0
M  V30 20 C 13.0047 0.0 0.0 0
M  V30 21 C -13.0047 0.0 0.0 0
M  V30 END ATOM
M  V30 BEGIN BOND
M  V30 1 1 1 2
M  V30 2 1 1 3
M  V30 3 1 2 4
M  V30 4 1 3 5
M  V30 5 1 4 6
M  V30 6 1 5 7
M  V30 7 1 6 8
M  V30 8 1 7 9
M  V30 9 1 8 10
M  V30 10 1 9 11
M  V30 11 1 10 12
M  V30 12 1 11 13
M  V30 13 1 12 14
M  V30 14 1 13 15
M  V30 15 1 14 16
M  V30 16 1 15 17
M  V30 17 1 16 18
M  V30 18 1 17 19
M  V30 19 1 18 20
M  V30 20 1 19 21
M  V30 END BOND
M  V30 END CTAB
M  END
>  <Molecule Name>
Didecyl sulfide

>  <Activity Label>
0

>  <SMILES>
CCCCCCCCCCSCCCCCCCCCC

>  <Molecular Formula>
C20H42S

>  <InChIKey>
RKYMVQJWYYOIJB-UHFFFAOYSA-N

>  <Repellency>
Inactive

>  <Reference DOI>
10.3390/toxics11100837

>  <Target Organism>
Not applied

$$$$
Compound 1046
Actelion Java MolfileCreator 2.0

  0  0  0  0  0  0              0 V3000
M  V30 BEGIN CTAB
M  V30 COUNTS 21 20 0 0 0
M  V30 BEGIN ATOM
M  V30 1 O 0.0 0.0 0.0 0
M  V30 2 C 1.2985 -0.7555 0.0 0
M  V30 3 O 2.5971 -0.0118 0.0 0
M  V30 4 C 1.2985 -2.2548 0.0 0
M  V30 5 C 3.8957 -0.7673 0.0 0
M  V30 6 C 1.2985 -3.754 0.0 0
M  V30 7 C 2.5971 -3.0103 0.0 0
M  V30 8 C 0.0 -3.0103 0.0 0
M  V30 9 C 5.1943 -0.0236 0.0 0
M  V30 10 O 2.5971 -4.5096 0.0 0
M  V30 11 O 0.0 -4.5096 0.0 0
M  V30 12 C 3.8957 -2.2666 0.0 0
M  V30 13 C -1.2985 -2.2666 0.0 0
M  V30 14 C -1.2985 -3.754 0.0 0
M  V30 15 C 5.1943 -3.0221 0.0 0
M  V30 16 C -2.5971 -3.0221 0.0 0
M  V30 17 C -2.5971 -4.4977 0.0 0
M  V30 18 C 6.4928 -2.2784 0.0 0
M  V30 19 C -3.8957 -2.2784 0.0 0
M  V30 20 C 7.7914 -3.0339 0.0 0
M  V30 21 C -5.1943 -3.0339 0.0 0
M  V30 END ATOM
M  V30 BEGIN BOND
M  V30 1 2 1 2
M  V30 2 1 2 3
M  V30 3 1 2 4
M  V30 4 1 3 5
M  V30 5 1 4 6
M  V30 6 1 4 7
M  V30 7 1 4 8
M  V30 8 1 5 9
M  V30 9 2 6 10
M  V30 10 1 6 11
M  V30 11 1 7 12
M  V30 12 1 8 13
M  V30 13 1 11 14
M  V30 14 1 12 15
M  V30 15 1 13 16
M  V30 16 1 14 17
M  V30 17 1 15 18
M  V30 18 1 16 19
M  V30 19 1 18 20
M  V30 20 1 19 21
M  V30 END BOND
M  V30 END CTAB
M  END
>  <Molecule Name>
Di-n-amylmalonic acid, diethyl ester

>  <Activity Label>
0

>  <SMILES>
CCCCCC(CCCCC)(C(OCC)=O)C(OCC)=O

>  <Molecular Formula>
C17H32O4

>  <InChIKey>
ZACKAFBQSUHPCB-UHFFFAOYSA-N

>  <Repellency>
Inactive

>  <Reference DOI>
10.3390/toxics11100837

>  <Target Organism>
Not applied

$$$$
Compound 1047
Actelion Java MolfileCreator 2.0

  0  0  0  0  0  0              0 V3000
M  V30 BEGIN CTAB
M  V30 COUNTS 21 20 0 0 0
M  V30 BEGIN ATOM
M  V30 1 O 0.0 0.0 0.0 0
M  V30 2 C 0.0 -1.5025 0.0 0
M  V30 3 O 1.3013 -2.2478 0.0 0
M  V30 4 C -1.3013 -2.2478 0.0 0
M  V30 5 C 2.6027 -1.5025 0.0 0
M  V30 6 C -2.6027 -1.5025 0.0 0
M  V30 7 C 3.9041 -2.2478 0.0 0
M  V30 8 C -3.9041 -2.2478 0.0 0
M  V30 9 C 5.2055 -1.5025 0.0 0
M  V30 10 C -5.2055 -1.5025 0.0 0
M  V30 11 C 6.5069 -2.2478 0.0 0
M  V30 12 C -6.5069 -2.2478 0.0 0
M  V30 13 C -7.8083 -1.5025 0.0 0
M  V30 14 C -9.1097 -2.2478 0.0 0
M  V30 15 C -10.4111 -1.5025 0.0 0
M  V30 16 O -10.4111 0.0 0.0 0
M  V30 17 O -11.7125 -2.2478 0.0 0
M  V30 18 C -13.0139 -1.5025 0.0 0
M  V30 19 C -14.3153 -2.2478 0.0 0
M  V30 20 C -15.6167 -1.5025 0.0 0
M  V30 21 C -16.9181 -2.2478 0.0 0
M  V30 END ATOM
M  V30 BEGIN BOND
M  V30 1 2 1 2
M  V30 2 1 2 3
M  V30 3 1 2 4
M  V30 4 1 3 5
M  V30 5 1 4 6
M  V30 6 1 5 7
M  V30 7 1 6 8
M  V30 8 1 7 9
M  V30 9 1 8 10
M  V30 10 1 9 11
M  V30 11 1 10 12
M  V30 12 1 12 13
M  V30 13 1 13 14
M  V30 14 1 14 15
M  V30 15 2 15 16
M  V30 16 1 15 17
M  V30 17 1 17 18
M  V30 18 1 18 19
M  V30 19 1 19 20
M  V30 20 1 20 21
M  V30 END BOND
M  V30 END CTAB
M  END
>  <Molecule Name>
Azelaic acid, dibutyl ester

>  <Activity Label>
0

>  <SMILES>
CCCCOC(CCCCCCCC(OCCCC)=O)=O

>  <Molecular Formula>
C17H32O4

>  <InChIKey>
RISLXYINQFKFRL-UHFFFAOYSA-N

>  <Repellency>
Inactive

>  <Reference DOI>
10.3390/toxics11100837

>  <Target Organism>
Not applied

$$$$
Compound 1048
Actelion Java MolfileCreator 2.0

  0  0  0  0  0  0              0 V3000
M  V30 BEGIN CTAB
M  V30 COUNTS 21 20 0 0 0
M  V30 BEGIN ATOM
M  V30 1 O 0.0 0.0 0.0 0
M  V30 2 C 0.0 1.5022 0.0 0
M  V30 3 O 1.3011 2.2474 0.0 0
M  V30 4 C -1.3011 2.2474 0.0 0
M  V30 5 C 2.6023 1.5022 0.0 0
M  V30 6 C -2.6023 1.5022 0.0 0
M  V30 7 C 3.9034 2.2474 0.0 0
M  V30 8 C -3.9034 2.2474 0.0 0
M  V30 9 C 5.2046 1.5022 0.0 0
M  V30 10 C 3.9034 3.7496 0.0 0
M  V30 11 C -5.2046 1.5022 0.0 0
M  V30 12 C -6.5057 2.2474 0.0 0
M  V30 13 C -7.8069 1.5022 0.0 0
M  V30 14 C -9.108 2.2474 0.0 0
M  V30 15 C -10.4092 1.5022 0.0 0
M  V30 16 O -10.4092 0.0 0.0 0
M  V30 17 O -11.7103 2.2474 0.0 0
M  V30 18 C -13.0115 1.5022 0.0 0
M  V30 19 C -14.3126 2.2474 0.0 0
M  V30 20 C -14.3126 3.7496 0.0 0
M  V30 21 C -15.6138 1.5022 0.0 0
M  V30 END ATOM
M  V30 BEGIN BOND
M  V30 1 2 1 2
M  V30 2 1 2 3
M  V30 3 1 2 4
M  V30 4 1 3 5
M  V30 5 1 4 6
M  V30 6 1 5 7
M  V30 7 1 6 8
M  V30 8 1 7 9
M  V30 9 1 7 10
M  V30 10 1 8 11
M  V30 11 1 11 12
M  V30 12 1 12 13
M  V30 13 1 13 14
M  V30 14 1 14 15
M  V30 15 2 15 16
M  V30 16 1 15 17
M  V30 17 1 17 18
M  V30 18 1 18 19
M  V30 19 1 19 20
M  V30 20 1 19 21
M  V30 END BOND
M  V30 END CTAB
M  END
>  <Molecule Name>
Azelaic acid, di-iso-butyl ester

>  <Activity Label>
0

>  <SMILES>
CC(C)COC(CCCCCCCC(OCC(C)C)=O)=O

>  <Molecular Formula>
C17H32O4

>  <InChIKey>
KEVDDQOYWPSMFD-UHFFFAOYSA-N

>  <Repellency>
Inactive

>  <Reference DOI>
10.3390/toxics11100837

>  <Target Organism>
Not applied

$$$$
Compound 1049
Actelion Java MolfileCreator 2.0

  0  0  0  0  0  0              0 V3000
M  V30 BEGIN CTAB
M  V30 COUNTS 21 20 0 0 0
M  V30 BEGIN ATOM
M  V30 1 O 0.0 0.0 0.0 0
M  V30 2 C -1.2988 0.7438 0.0 0
M  V30 3 O -2.5976 -0.0118 0.0 0
M  V30 4 C -3.8965 0.732 0.0 0
M  V30 5 C -5.1953 -0.0236 0.0 0
M  V30 6 C -6.4942 0.7202 0.0 0
M  V30 7 C -7.793 -0.0354 0.0 0
M  V30 8 C -9.0919 0.7084 0.0 0
M  V30 9 C -10.3907 -0.0472 0.0 0
M  V30 10 C -11.6896 0.6966 0.0 0
M  V30 11 C -12.9884 -0.059 0.0 0
M  V30 12 C -14.2873 0.6848 0.0 0
M  V30 13 C -15.5861 -0.0708 0.0 0
M  V30 14 C -15.5861 -1.5704 0.0 0
M  V30 15 C -16.885 -2.3261 0.0 0
M  V30 16 C -16.885 -3.8256 0.0 0
M  V30 17 C -18.1838 -4.5813 0.0 0
M  V30 18 C -18.1838 -6.0809 0.0 0
M  V30 19 C -19.4826 -6.8366 0.0 0
M  V30 20 C -19.4826 -8.3362 0.0 0
M  V30 21 C -20.7815 -9.0801 0.0 0
M  V30 END ATOM
M  V30 BEGIN BOND
M  V30 1 2 1 2
M  V30 2 1 2 3
M  V30 3 1 3 4
M  V30 4 1 4 5
M  V30 5 1 5 6
M  V30 6 1 6 7
M  V30 7 1 7 8
M  V30 8 1 8 9
M  V30 9 1 9 10
M  V30 10 1 10 11
M  V30 11 1 11 12
M  V30 12 2 12 13
M  V30 13 1 13 14
M  V30 14 1 14 15
M  V30 15 1 15 16
M  V30 16 1 16 17
M  V30 17 1 17 18
M  V30 18 1 18 19
M  V30 19 1 19 20
M  V30 20 1 20 21
M  V30 END BOND
M  V30 END CTAB
M  END
>  <Molecule Name>
Formic acid, oleyl ester

>  <Activity Label>
0

>  <SMILES>
CCCCCCCC/C=C\CCCCCCCCOC=O

>  <Molecular Formula>
C19H36O2

>  <InChIKey>
AACPMFMDWVGRRY-KTKRTIGZSA-N

>  <Repellency>
Inactive

>  <Reference DOI>
10.3390/toxics11100837

>  <Target Organism>
Not applied

$$$$
Compound 1050
Actelion Java MolfileCreator 2.0

  0  0  0  0  0  0              0 V3000
M  V30 BEGIN CTAB
M  V30 COUNTS 21 20 0 0 0
M  V30 BEGIN ATOM
M  V30 1 O 0.0 0.0 0.0 0
M  V30 2 C 0.0 -1.5026 0.0 0
M  V30 3 O -1.3015 -2.248 0.0 0
M  V30 4 C 1.3015 -2.248 0.0 0
M  V30 5 C -2.603 -1.5026 0.0 0
M  V30 6 C 2.603 -1.5026 0.0 0
M  V30 7 C -3.9045 -2.248 0.0 0
M  V30 8 C -5.206 -1.5026 0.0 0
M  V30 9 C -6.5075 -2.248 0.0 0
M  V30 10 C -7.809 -1.5026 0.0 0
M  V30 11 C -9.1106 -2.248 0.0 0
M  V30 12 C -10.4121 -1.5026 0.0 0
M  V30 13 C -11.7136 -2.248 0.0 0
M  V30 14 C -13.0151 -1.5026 0.0 0
M  V30 15 C -14.3166 -2.248 0.0 0
M  V30 16 C -15.6181 -1.5026 0.0 0
M  V30 17 C -16.9196 -2.248 0.0 0
M  V30 18 C -18.2212 -1.5026 0.0 0
M  V30 19 C -19.5227 -2.248 0.0 0
M  V30 20 C -20.8242 -1.5026 0.0 0
M  V30 21 C -22.1257 -2.248 0.0 0
M  V30 END ATOM
M  V30 BEGIN BOND
M  V30 1 2 1 2
M  V30 2 1 2 3
M  V30 3 1 2 4
M  V30 4 1 3 5
M  V30 5 1 4 6
M  V30 6 1 5 7
M  V30 7 1 7 8
M  V30 8 1 8 9
M  V30 9 1 9 10
M  V30 10 1 10 11
M  V30 11 1 11 12
M  V30 12 1 12 13
M  V30 13 1 13 14
M  V30 14 1 14 15
M  V30 15 1 15 16
M  V30 16 1 16 17
M  V30 17 1 17 18
M  V30 18 1 18 19
M  V30 19 1 19 20
M  V30 20 1 20 21
M  V30 END BOND
M  V30 END CTAB
M  END
>  <Molecule Name>
Propionic acid, cetyl ester

>  <Activity Label>
0

>  <SMILES>
CCCCCCCCCCCCCCCCOC(CC)=O

>  <Molecular Formula>
C19H38O2

>  <InChIKey>
RSRQBSGZMPVCOI-UHFFFAOYSA-N

>  <Repellency>
Inactive

>  <Reference DOI>
10.3390/toxics11100837

>  <Target Organism>
Not applied

$$$$
Compound 1051
Actelion Java MolfileCreator 2.0

  0  0  0  0  0  0              0 V3000
M  V30 BEGIN CTAB
M  V30 COUNTS 21 20 0 0 0
M  V30 BEGIN ATOM
M  V30 1 O 0.0 0.0 0.0 0
M  V30 2 C 0.0 1.5018 0.0 0
M  V30 3 O -1.3007 2.2467 0.0 0
M  V30 4 C 1.3007 2.2467 0.0 0
M  V30 5 C -2.6015 1.5018 0.0 0
M  V30 6 C 2.6015 1.5018 0.0 0
M  V30 7 C 3.9023 2.2467 0.0 0
M  V30 8 C 5.203 1.5018 0.0 0
M  V30 9 C 6.5038 2.2467 0.0 0
M  V30 10 C 7.8046 1.5018 0.0 0
M  V30 11 C 9.1054 2.2467 0.0 0
M  V30 12 C 10.4061 1.5018 0.0 0
M  V30 13 C 11.7069 2.2467 0.0 0
M  V30 14 C 11.7069 3.7485 0.0 0
M  V30 15 C 13.0077 4.4935 0.0 0
M  V30 16 C 13.0077 5.9953 0.0 0
M  V30 17 C 11.7069 6.7403 0.0 0
M  V30 18 C 11.7069 8.2421 0.0 0
M  V30 19 C 10.4061 8.9871 0.0 0
M  V30 20 C 10.4061 10.4889 0.0 0
M  V30 21 C 9.1054 11.2457 0.0 0
M  V30 END ATOM
M  V30 BEGIN BOND
M  V30 1 2 1 2
M  V30 2 1 2 3
M  V30 3 1 2 4
M  V30 4 1 3 5
M  V30 5 1 4 6
M  V30 6 1 6 7
M  V30 7 1 7 8
M  V30 8 1 8 9
M  V30 9 1 9 10
M  V30 10 1 10 11
M  V30 11 1 11 12
M  V30 12 2 12 13
M  V30 13 1 13 14
M  V30 14 1 14 15
M  V30 15 2 15 16
M  V30 16 1 16 17
M  V30 17 1 17 18
M  V30 18 1 18 19
M  V30 19 1 19 20
M  V30 20 1 20 21
M  V30 END BOND
M  V30 END CTAB
M  END
>  <Molecule Name>
Linoleic acid, methyl ester

>  <Activity Label>
0

>  <SMILES>
CCCCC/C=C\C/C=C\CCCCCCCC(OC)=O

>  <Molecular Formula>
C19H34O2

>  <InChIKey>
WTTJVINHCBCLGX-NQLNTKRDSA-N

>  <Repellency>
Inactive

>  <Reference DOI>
10.3390/toxics11100837

>  <Target Organism>
Not applied

$$$$
Compound 1052
Actelion Java MolfileCreator 2.0

  0  0  0  0  0  0              0 V3000
M  V30 BEGIN CTAB
M  V30 COUNTS 21 20 0 0 0
M  V30 BEGIN ATOM
M  V30 1 O 0.0 0.0 0.0 0
M  V30 2 C 0.0 1.5018 0.0 0
M  V30 3 O -1.3007 2.2467 0.0 0
M  V30 4 C 1.3007 2.2467 0.0 0
M  V30 5 C -2.6015 1.5018 0.0 0
M  V30 6 C 2.6015 1.5018 0.0 0
M  V30 7 C 3.9023 2.2467 0.0 0
M  V30 8 C 5.203 1.5018 0.0 0
M  V30 9 C 6.5038 2.2467 0.0 0
M  V30 10 C 7.8046 1.5018 0.0 0
M  V30 11 C 9.1054 2.2467 0.0 0
M  V30 12 C 10.4061 1.5018 0.0 0
M  V30 13 C 11.7069 2.2467 0.0 0
M  V30 14 C 11.7069 3.7485 0.0 0
M  V30 15 C 13.0077 4.4935 0.0 0
M  V30 16 C 13.0077 5.9953 0.0 0
M  V30 17 C 14.3085 6.7403 0.0 0
M  V30 18 C 14.3085 8.2421 0.0 0
M  V30 19 C 15.6092 8.9871 0.0 0
M  V30 20 C 15.6092 10.4889 0.0 0
M  V30 21 C 16.91 11.2457 0.0 0
M  V30 END ATOM
M  V30 BEGIN BOND
M  V30 1 2 1 2
M  V30 2 1 2 3
M  V30 3 1 2 4
M  V30 4 1 3 5
M  V30 5 1 4 6
M  V30 6 1 6 7
M  V30 7 1 7 8
M  V30 8 1 8 9
M  V30 9 1 9 10
M  V30 10 1 10 11
M  V30 11 1 11 12
M  V30 12 2 12 13
M  V30 13 1 13 14
M  V30 14 1 14 15
M  V30 15 1 15 16
M  V30 16 1 16 17
M  V30 17 1 17 18
M  V30 18 1 18 19
M  V30 19 1 19 20
M  V30 20 1 20 21
M  V30 END BOND
M  V30 END CTAB
M  END
>  <Molecule Name>
Oleic acid, methyl ester

>  <Activity Label>
0

>  <SMILES>
CCCCCCCC/C=C\CCCCCCCC(OC)=O

>  <Molecular Formula>
C19H36O2

>  <InChIKey>
QYDYPVFESGNLHU-KHPPLWFESA-N

>  <Repellency>
Inactive

>  <Reference DOI>
10.3390/toxics11100837

>  <Target Organism>
Not applied

$$$$
Compound 1053
Actelion Java MolfileCreator 2.0

  0  0  0  0  0  0              0 V3000
M  V30 BEGIN CTAB
M  V30 COUNTS 21 20 0 0 0
M  V30 BEGIN ATOM
M  V30 1 O 0.0 0.0 0.0 0
M  V30 2 C 0.0 1.4999 0.0 0
M  V30 3 O -1.2992 2.244 0.0 0
M  V30 4 C 1.2992 2.244 0.0 0
M  V30 5 C -2.5984 1.4881 0.0 0
M  V30 6 C 2.5984 1.4881 0.0 0
M  V30 7 C 3.8976 2.2322 0.0 0
M  V30 8 C 5.1968 1.4763 0.0 0
M  V30 9 C 6.496 2.2204 0.0 0
M  V30 10 C 7.7952 1.4645 0.0 0
M  V30 11 C 9.0944 2.2086 0.0 0
M  V30 12 C 10.3936 1.4527 0.0 0
M  V30 13 C 11.6928 2.1968 0.0 0
M  V30 14 C 12.992 1.4409 0.0 0
M  V30 15 C 14.2912 2.185 0.0 0
M  V30 16 C 15.5905 1.4291 0.0 0
M  V30 17 C 16.8897 2.1732 0.0 0
M  V30 18 C 18.1889 1.4173 0.0 0
M  V30 19 C 19.4881 2.1614 0.0 0
M  V30 20 C 20.7873 1.4055 0.0 0
M  V30 21 C 22.0865 2.1496 0.0 0
M  V30 END ATOM
M  V30 BEGIN BOND
M  V30 1 2 1 2
M  V30 2 1 2 3
M  V30 3 1 2 4
M  V30 4 1 3 5
M  V30 5 1 4 6
M  V30 6 1 6 7
M  V30 7 1 7 8
M  V30 8 1 8 9
M  V30 9 1 9 10
M  V30 10 1 10 11
M  V30 11 1 11 12
M  V30 12 1 12 13
M  V30 13 1 13 14
M  V30 14 1 14 15
M  V30 15 1 15 16
M  V30 16 1 16 17
M  V30 17 1 17 18
M  V30 18 1 18 19
M  V30 19 1 19 20
M  V30 20 1 20 21
M  V30 END BOND
M  V30 END CTAB
M  END
>  <Molecule Name>
Octadecanoic acid, methyl ester

>  <Activity Label>
0

>  <SMILES>
CCCCCCCCCCCCCCCCCC(OC)=O

>  <Molecular Formula>
C19H38O2

>  <InChIKey>
HPEUJPJOZXNMSJ-UHFFFAOYSA-N

>  <Repellency>
Inactive

>  <Reference DOI>
10.3390/toxics11100837

>  <Target Organism>
Not applied

$$$$
Compound 1054
Actelion Java MolfileCreator 2.0

  0  0  0  0  0  0              0 V3000
M  V30 BEGIN CTAB
M  V30 COUNTS 21 20 0 0 0
M  V30 BEGIN ATOM
M  V30 1 O 0.0 0.0 0.0 0
M  V30 2 C 0.0 -1.4995 0.0 0
M  V30 3 O -1.2988 -2.2552 0.0 0
M  V30 4 C 1.2988 -2.2552 0.0 0
M  V30 5 C -2.5976 -1.5113 0.0 0
M  V30 6 C 2.5976 -1.5113 0.0 0
M  V30 7 C -2.5976 -0.0118 0.0 0
M  V30 8 C -3.8964 -2.267 0.0 0
M  V30 9 C 3.8964 -2.267 0.0 0
M  V30 10 C 5.1953 -1.5231 0.0 0
M  V30 11 C 6.4941 -2.2788 0.0 0
M  V30 12 C 7.7929 -1.5349 0.0 0
M  V30 13 C 9.0918 -2.2906 0.0 0
M  V30 14 C 10.3906 -1.5467 0.0 0
M  V30 15 C 11.6894 -2.3024 0.0 0
M  V30 16 C 12.9883 -1.5585 0.0 0
M  V30 17 C 14.2871 -2.3142 0.0 0
M  V30 18 C 15.5859 -1.5704 0.0 0
M  V30 19 C 16.8848 -2.326 0.0 0
M  V30 20 C 18.1836 -1.5822 0.0 0
M  V30 21 C 19.4824 -2.3378 0.0 0
M  V30 END ATOM
M  V30 BEGIN BOND
M  V30 1 2 1 2
M  V30 2 1 2 3
M  V30 3 1 2 4
M  V30 4 1 3 5
M  V30 5 1 4 6
M  V30 6 1 5 7
M  V30 7 1 5 8
M  V30 8 1 6 9
M  V30 9 1 9 10
M  V30 10 1 10 11
M  V30 11 1 11 12
M  V30 12 1 12 13
M  V30 13 1 13 14
M  V30 14 1 14 15
M  V30 15 1 15 16
M  V30 16 1 16 17
M  V30 17 1 17 18
M  V30 18 1 18 19
M  V30 19 1 19 20
M  V30 20 1 20 21
M  V30 END BOND
M  V30 END CTAB
M  END
>  <Molecule Name>
Palmitic acid, iso-propyl ester

>  <Activity Label>
0

>  <SMILES>
CCCCCCCCCCCCCCCC(OC(C)C)=O

>  <Molecular Formula>
C19H38O2

>  <InChIKey>
XUGNVMKQXJXZCD-UHFFFAOYSA-N

>  <Repellency>
Inactive

>  <Reference DOI>
10.3390/toxics11100837

>  <Target Organism>
Not applied

$$$$
Compound 1055
Actelion Java MolfileCreator 2.0

  0  0  0  0  0  0              0 V3000
M  V30 BEGIN CTAB
M  V30 COUNTS 21 20 0 0 0
M  V30 BEGIN ATOM
M  V30 1 O 0.0 0.0 0.0 0
M  V30 2 C -1.3132 0.764 0.0 0
M  V30 3 O -1.3132 2.2803 0.0 0
M  V30 4 C -2.6265 0.0119 0.0 0
M  V30 5 C 0.0 3.0324 0.0 0
M  V30 6 C -2.6265 -1.5042 0.0 0
M  V30 7 C 0.0 4.5486 0.0 0
M  V30 8 C -3.9397 -2.2564 0.0 0
M  V30 9 C -3.9397 -3.7726 0.0 0
M  V30 10 C -2.6265 -3.0205 0.0 0
M  V30 11 C -5.253 -1.5042 0.0 0
M  V30 12 O -3.0085 -4.5367 0.0 0
M  V30 13 C -5.253 -4.5247 0.0 0
M  V30 14 C -2.4355 -4.5367 0.0 0
M  V30 15 C -1.3132 -2.2683 0.0 0
M  V30 16 C -6.5663 -2.2564 0.0 0
M  V30 17 C -7.8795 -1.5042 0.0 0
M  V30 18 O -7.8795 0.0119 0.0 0
M  V30 19 O -9.1928 -2.2564 0.0 0
M  V30 20 C -10.506 -1.5042 0.0 0
M  V30 21 C -11.8193 -2.2564 0.0 0
M  V30 END ATOM
M  V30 BEGIN BOND
M  V30 1 2 1 2
M  V30 2 1 2 3
M  V30 3 1 2 4
M  V30 4 1 3 5
M  V30 5 1 4 6
M  V30 6 1 5 7
M  V30 7 1 6 8
M  V30 8 1 8 9
M  V30 9 1 8 10
M  V30 10 1 8 11
M  V30 11 2 9 12
M  V30 12 1 9 13
M  V30 13 2 10 14
M  V30 14 1 10 15
M  V30 15 1 11 16
M  V30 16 1 16 17
M  V30 17 2 17 18
M  V30 18 1 17 19
M  V30 19 1 19 20
M  V30 20 1 20 21
M  V30 END BOND
M  V30 END CTAB
M  END
>  <Molecule Name>
gamma-Acetyl-gamma-iso-propenylpimelic acid, diethyl ester

>  <Activity Label>
0

>  <SMILES>
CCOC(CCC(CCC(OCC)=O)(C(C)=C)C(C)=O)=O

>  <Molecular Formula>
C16H26O5

>  <InChIKey>
SBTQRLLVRZEDEE-UHFFFAOYSA-N

>  <Repellency>
Inactive

>  <Reference DOI>
10.3390/toxics11100837

>  <Target Organism>
Not applied

$$$$
Compound 1056
Actelion Java MolfileCreator 2.0

  0  0  0  0  0  0              0 V3000
M  V30 BEGIN CTAB
M  V30 COUNTS 21 20 0 0 0
M  V30 BEGIN ATOM
M  V30 1 O 0.0 0.0 0.0 0
M  V30 2 C 0.0 1.497 0.0 0
M  V30 3 O -1.2966 2.2514 0.0 0
M  V30 4 C 1.2966 2.2514 0.0 0
M  V30 5 C -2.5933 1.497 0.0 0
M  V30 6 C 2.5933 1.497 0.0 0
M  V30 7 C -3.8899 2.2514 0.0 0
M  V30 8 C 3.8899 2.2514 0.0 0
M  V30 9 O -5.1866 1.497 0.0 0
M  V30 10 C 5.1866 1.497 0.0 0
M  V30 11 C -6.4832 2.2514 0.0 0
M  V30 12 C 6.4832 2.2514 0.0 0
M  V30 13 C -7.7799 1.497 0.0 0
M  V30 14 C 7.7799 1.497 0.0 0
M  V30 15 C -9.0765 2.2514 0.0 0
M  V30 16 C 9.0765 2.2514 0.0 0
M  V30 17 C -10.3732 1.497 0.0 0
M  V30 18 C 10.3732 1.497 0.0 0
M  V30 19 C 11.6699 2.2514 0.0 0
M  V30 20 C 12.9665 1.497 0.0 0
M  V30 21 C 14.2632 2.2514 0.0 0
M  V30 END ATOM
M  V30 BEGIN BOND
M  V30 1 2 1 2
M  V30 2 1 2 3
M  V30 3 1 2 4
M  V30 4 1 3 5
M  V30 5 1 4 6
M  V30 6 1 5 7
M  V30 7 1 6 8
M  V30 8 1 7 9
M  V30 9 1 8 10
M  V30 10 1 9 11
M  V30 11 1 10 12
M  V30 12 1 11 13
M  V30 13 1 12 14
M  V30 14 1 13 15
M  V30 15 1 14 16
M  V30 16 1 15 17
M  V30 17 1 16 18
M  V30 18 1 18 19
M  V30 19 1 19 20
M  V30 20 1 20 21
M  V30 END BOND
M  V30 END CTAB
M  END
>  <Molecule Name>
Lauric acid, butoxyethyl ester

>  <Activity Label>
0

>  <SMILES>
CCCCCCCCCCCC(OCCOCCCC)=O

>  <Molecular Formula>
C18H36O3

>  <InChIKey>
QJENVPXXRBETHA-UHFFFAOYSA-N

>  <Repellency>
Inactive

>  <Reference DOI>
10.3390/toxics11100837

>  <Target Organism>
Not applied

$$$$
Compound 1057
Actelion Java MolfileCreator 2.0

  0  0  0  0  0  0              0 V3000
M  V30 BEGIN CTAB
M  V30 COUNTS 21 20 0 0 0
M  V30 BEGIN ATOM
M  V30 1 O 0.0 0.0 0.0 0
M  V30 2 C 0.0 -1.497 0.0 0
M  V30 3 O -1.2966 -2.2514 0.0 0
M  V30 4 C 1.2966 -2.2514 0.0 0
M  V30 5 C -2.5933 -1.497 0.0 0
M  V30 6 O 2.5933 -1.497 0.0 0
M  V30 7 C -3.8899 -2.2514 0.0 0
M  V30 8 C 3.8899 -2.2514 0.0 0
M  V30 9 C -5.1866 -1.497 0.0 0
M  V30 10 C 5.1866 -1.497 0.0 0
M  V30 11 C -6.4832 -2.2514 0.0 0
M  V30 12 C 6.4832 -2.2514 0.0 0
M  V30 13 C -7.7799 -1.497 0.0 0
M  V30 14 C 7.7799 -1.497 0.0 0
M  V30 15 C -9.0765 -2.2514 0.0 0
M  V30 16 C 9.0765 -2.2514 0.0 0
M  V30 17 C -10.3732 -1.497 0.0 0
M  V30 18 C 10.3732 -1.497 0.0 0
M  V30 19 C -11.6699 -2.2514 0.0 0
M  V30 20 C 11.6699 -2.2514 0.0 0
M  V30 21 C 12.9665 -1.497 0.0 0
M  V30 END ATOM
M  V30 BEGIN BOND
M  V30 1 2 1 2
M  V30 2 1 2 3
M  V30 3 1 2 4
M  V30 4 1 3 5
M  V30 5 1 4 6
M  V30 6 1 5 7
M  V30 7 1 6 8
M  V30 8 1 7 9
M  V30 9 1 8 10
M  V30 10 1 9 11
M  V30 11 1 10 12
M  V30 12 1 11 13
M  V30 13 1 12 14
M  V30 14 1 13 15
M  V30 15 1 14 16
M  V30 16 1 15 17
M  V30 17 1 16 18
M  V30 18 1 17 19
M  V30 19 1 18 20
M  V30 20 1 20 21
M  V30 END BOND
M  V30 END CTAB
M  END
>  <Molecule Name>
Octoxyacetic acid, octyl ester

>  <Activity Label>
0

>  <SMILES>
CCCCCCCCOCC(OCCCCCCCC)=O

>  <Molecular Formula>
C18H36O3

>  <InChIKey>
MQEVGOURUMNEHP-UHFFFAOYSA-N

>  <Repellency>
Inactive

>  <Reference DOI>
10.3390/toxics11100837

>  <Target Organism>
Not applied

$$$$
Compound 1058
Actelion Java MolfileCreator 2.0

  0  0  0  0  0  0              0 V3000
M  V30 BEGIN CTAB
M  V30 COUNTS 21 20 0 0 0
M  V30 BEGIN ATOM
M  V30 1 O 0.0 0.0 0.0 0
M  V30 2 C -1.2991 0.744 0.0 0
M  V30 3 C 1.2991 0.744 0.0 0
M  V30 4 O -1.2991 2.2439 0.0 0
M  V30 5 O -2.5982 -0.0118 0.0 0
M  V30 6 C -1.2991 -0.7558 0.0 0
M  V30 7 C 2.5982 -0.0118 0.0 0
M  V30 8 C 0.0 2.9879 0.0 0
M  V30 9 C -3.8973 0.7322 0.0 0
M  V30 10 C 0.0 -1.5116 0.0 0
M  V30 11 C 3.8973 0.7322 0.0 0
M  V30 12 C 0.0 4.4878 0.0 0
M  V30 13 C -5.1964 -0.0236 0.0 0
M  V30 14 C 5.1964 -0.0236 0.0 0
M  V30 15 C 3.8973 2.2321 0.0 0
M  V30 16 C 1.2991 5.2318 0.0 0
M  V30 17 C -6.4955 0.7204 0.0 0
M  V30 18 C 1.2991 6.7317 0.0 0
M  V30 19 C 2.5982 4.476 0.0 0
M  V30 20 C -6.4955 2.2203 0.0 0
M  V30 21 C -7.7946 -0.0354 0.0 0
M  V30 END ATOM
M  V30 BEGIN BOND
M  V30 1 1 1 2
M  V30 2 1 1 3
M  V30 3 1 2 4
M  V30 4 1 2 5
M  V30 5 1 2 6
M  V30 6 1 3 7
M  V30 7 1 4 8
M  V30 8 1 5 9
M  V30 9 1 6 10
M  V30 10 1 7 11
M  V30 11 1 8 12
M  V30 12 1 9 13
M  V30 13 1 11 14
M  V30 14 1 11 15
M  V30 15 1 12 16
M  V30 16 1 13 17
M  V30 17 1 16 18
M  V30 18 1 16 19
M  V30 19 1 17 20
M  V30 20 1 17 21
M  V30 END BOND
M  V30 END CTAB
M  END
>  <Molecule Name>
Orthopropionic acid, tri-iso-amyl ester

>  <Activity Label>
0

>  <SMILES>
CCC(OCCC(C)C)(OCCC(C)C)OCCC(C)C

>  <Molecular Formula>
C18H38O3

>  <InChIKey>
ILWPMJMRMFECTD-UHFFFAOYSA-N

>  <Repellency>
Inactive

>  <Reference DOI>
10.3390/toxics11100837

>  <Target Organism>
Not applied

$$$$
Compound 1059
Actelion Java MolfileCreator 2.0

  0  0  0  0  0  0              0 V3000
M  V30 BEGIN CTAB
M  V30 COUNTS 21 20 0 0 0
M  V30 BEGIN ATOM
M  V30 1 O 0.0 0.0 0.0 0
M  V30 2 C 0.0 -1.4995 0.0 0
M  V30 3 O -1.2988 -2.2552 0.0 0
M  V30 4 O 1.2988 -2.2552 0.0 0
M  V30 5 C -2.5976 -1.5113 0.0 0
M  V30 6 C 2.5976 -1.5113 0.0 0
M  V30 7 C -3.8964 -2.267 0.0 0
M  V30 8 C 3.8964 -2.267 0.0 0
M  V30 9 O -5.1953 -1.5231 0.0 0
M  V30 10 C 5.1953 -1.5231 0.0 0
M  V30 11 C -6.4941 -2.2788 0.0 0
M  V30 12 C 6.4941 -2.2788 0.0 0
M  V30 13 C -7.7929 -1.5349 0.0 0
M  V30 14 O -9.0918 -2.2906 0.0 0
M  V30 15 C -10.3906 -1.5467 0.0 0
M  V30 16 O -10.3906 -0.0472 0.0 0
M  V30 17 O -11.6894 -2.3024 0.0 0
M  V30 18 C -12.9883 -1.5585 0.0 0
M  V30 19 C -14.2871 -2.3142 0.0 0
M  V30 20 C -15.5859 -1.5704 0.0 0
M  V30 21 C -16.8848 -2.326 0.0 0
M  V30 END ATOM
M  V30 BEGIN BOND
M  V30 1 2 1 2
M  V30 2 1 2 3
M  V30 3 1 2 4
M  V30 4 1 3 5
M  V30 5 1 4 6
M  V30 6 1 5 7
M  V30 7 1 6 8
M  V30 8 1 7 9
M  V30 9 1 8 10
M  V30 10 1 9 11
M  V30 11 1 10 12
M  V30 12 1 11 13
M  V30 13 1 13 14
M  V30 14 1 14 15
M  V30 15 2 15 16
M  V30 16 1 15 17
M  V30 17 1 17 18
M  V30 18 1 18 19
M  V30 19 1 19 20
M  V30 20 1 20 21
M  V30 END BOND
M  V30 END CTAB
M  END
>  <Molecule Name>
Diethylene glycol bis (butyl carbonate)

>  <Activity Label>
0

>  <SMILES>
CCCCOC(OCCOCCOC(OCCCC)=O)=O

>  <Molecular Formula>
C14H26O7

>  <InChIKey>
WSMYBZZUAFRRBM-UHFFFAOYSA-N

>  <Repellency>
Inactive

>  <Reference DOI>
10.3390/toxics11100837

>  <Target Organism>
Not applied

$$$$
Compound 1060
Actelion Java MolfileCreator 2.0

  0  0  0  0  0  0              0 V3000
M  V30 BEGIN CTAB
M  V30 COUNTS 21 20 0 0 0
M  V30 BEGIN ATOM
M  V30 1 O 0.0 0.0 0.0 0
M  V30 2 C 0.0 -1.5026 0.0 0
M  V30 3 O -1.3015 -2.248 0.0 0
M  V30 4 C 1.3015 -2.248 0.0 0
M  V30 5 C -2.603 -1.5026 0.0 0
M  V30 6 N 2.603 -1.5026 0.0 0
M  V30 7 C -3.9045 -2.248 0.0 0
M  V30 8 C 3.9045 -2.248 0.0 0
M  V30 9 C -5.206 -1.5026 0.0 0
M  V30 10 C 5.206 -1.5026 0.0 0
M  V30 11 C -6.5075 -2.248 0.0 0
M  V30 12 C 6.5075 -2.248 0.0 0
M  V30 13 C -7.809 -1.5026 0.0 0
M  V30 14 C 7.809 -1.5026 0.0 0
M  V30 15 C -9.1106 -2.248 0.0 0
M  V30 16 C -10.4121 -1.5026 0.0 0
M  V30 17 C -11.7136 -2.248 0.0 0
M  V30 18 C -13.0151 -1.5026 0.0 0
M  V30 19 C -14.3166 -2.248 0.0 0
M  V30 20 C -15.6181 -1.5026 0.0 0
M  V30 21 C -16.9196 -2.248 0.0 0
M  V30 END ATOM
M  V30 BEGIN BOND
M  V30 1 2 1 2
M  V30 2 1 2 3
M  V30 3 1 2 4
M  V30 4 1 3 5
M  V30 5 1 4 6
M  V30 6 1 5 7
M  V30 7 1 6 8
M  V30 8 1 7 9
M  V30 9 1 8 10
M  V30 10 1 9 11
M  V30 11 1 10 12
M  V30 12 1 11 13
M  V30 13 1 12 14
M  V30 14 1 13 15
M  V30 15 1 15 16
M  V30 16 1 16 17
M  V30 17 1 17 18
M  V30 18 1 18 19
M  V30 19 1 19 20
M  V30 20 1 20 21
M  V30 END BOND
M  V30 END CTAB
M  END
>  <Molecule Name>
N-Butylaminoacetic acid, lauryl ester

>  <Activity Label>
0

>  <SMILES>
CCCCCCCCCCCCOC(CNCCCC)=O

>  <Molecular Formula>
C18H37NO2

>  <InChIKey>
UDJXOZGDWBRAKV-UHFFFAOYSA-N

>  <Repellency>
Inactive

>  <Reference DOI>
10.3390/toxics11100837

>  <Target Organism>
Not applied

$$$$
Compound 1061
Actelion Java MolfileCreator 2.0

  0  0  0  0  0  0              0 V3000
M  V30 BEGIN CTAB
M  V30 COUNTS 21 20 0 0 0
M  V30 BEGIN ATOM
M  V30 1 O 0.0 0.0 0.0 0
M  V30 2 C 0.0 1.5018 0.0 0
M  V30 3 O -1.3007 2.2467 0.0 0
M  V30 4 C 1.3007 2.2467 0.0 0
M  V30 5 C -2.6015 1.5018 0.0 0
M  V30 6 C 2.6015 1.5018 0.0 0
M  V30 7 C -3.9023 2.2467 0.0 0
M  V30 8 C 3.9023 2.2467 0.0 0
M  V30 9 C -5.203 1.5018 0.0 0
M  V30 10 O 3.9023 3.7485 0.0 0
M  V30 11 N 5.203 1.5018 0.0 0
M  V30 12 C 6.5038 2.2467 0.0 0
M  V30 13 C 5.203 0.0 0.0 0
M  V30 14 C 7.8046 1.5018 0.0 0
M  V30 15 C 3.9023 -0.7568 0.0 0
M  V30 16 C 9.1054 2.2467 0.0 0
M  V30 17 C 3.9023 -2.2586 0.0 0
M  V30 18 C 10.4061 1.5018 0.0 0
M  V30 19 C 2.6015 -3.0036 0.0 0
M  V30 20 C 11.7069 2.2467 0.0 0
M  V30 21 C 2.6015 -4.5054 0.0 0
M  V30 END ATOM
M  V30 BEGIN BOND
M  V30 1 2 1 2
M  V30 2 1 2 3
M  V30 3 1 2 4
M  V30 4 1 3 5
M  V30 5 1 4 6
M  V30 6 1 5 7
M  V30 7 1 6 8
M  V30 8 1 7 9
M  V30 9 2 8 10
M  V30 10 1 8 11
M  V30 11 1 11 12
M  V30 12 1 11 13
M  V30 13 1 12 14
M  V30 14 1 13 15
M  V30 15 1 14 16
M  V30 16 1 15 17
M  V30 17 1 16 18
M  V30 18 1 17 19
M  V30 19 1 18 20
M  V30 20 1 19 21
M  V30 END BOND
M  V30 END CTAB
M  END
>  <Molecule Name>
N,N-Diamylsuccinamic acid, n-propyl ester

>  <Activity Label>
0

>  <SMILES>
CCCCCN(CCCCC)C(CCC(OCCC)=O)=O

>  <Molecular Formula>
C17H33NO3

>  <InChIKey>
HYANULOXQMADQK-UHFFFAOYSA-N

>  <Repellency>
Inactive

>  <Reference DOI>
10.3390/toxics11100837

>  <Target Organism>
Not applied

$$$$
Compound 1062
Actelion Java MolfileCreator 2.0

  0  0  0  0  0  0              0 V3000
M  V30 BEGIN CTAB
M  V30 COUNTS 21 22 0 0 0
M  V30 BEGIN ATOM
M  V30 1 O 0.0 0.0 0.0 0
M  V30 2 C -1.3001 0.7564 0.0 0
M  V30 3 O -2.6003 0.0118 0.0 0
M  V30 4 C -1.3001 2.2575 0.0 0
M  V30 5 C -2.6003 -1.4892 0.0 0
M  V30 6 C -2.6003 3.0021 0.0 0
M  V30 7 C 0.0 3.0021 0.0 0
M  V30 8 C -3.9004 -2.2339 0.0 0
M  V30 9 C -1.3001 -2.2457 0.0 0
M  V30 10 C -3.9004 2.2575 0.0 0
M  V30 11 C -2.6003 4.5032 0.0 0
M  V30 12 C 0.0 4.5032 0.0 0
M  V30 13 C -3.9004 -3.735 0.0 0
M  V30 14 C -1.3001 -3.7468 0.0 0
M  V30 15 O -3.9004 0.7564 0.0 0
M  V30 16 O -5.2006 3.0021 0.0 0
M  V30 17 C -1.3001 5.2479 0.0 0
M  V30 18 C -2.6003 -4.4914 0.0 0
M  V30 19 C -6.5008 2.2575 0.0 0
M  V30 20 C -7.8009 3.0021 0.0 0
M  V30 21 C -9.1011 2.2575 0.0 0
M  V30 END ATOM
M  V30 BEGIN BOND
M  V30 1 2 1 2
M  V30 2 1 2 3
M  V30 3 1 2 4
M  V30 4 1 3 5
M  V30 5 2 4 6
M  V30 6 1 4 7
M  V30 7 1 5 8
M  V30 8 1 5 9
M  V30 9 1 6 10
M  V30 10 1 6 11
M  V30 11 2 7 12
M  V30 12 1 8 13
M  V30 13 1 9 14
M  V30 14 2 10 15
M  V30 15 1 10 16
M  V30 16 2 11 17
M  V30 17 1 13 18
M  V30 18 1 16 19
M  V30 19 1 19 20
M  V30 20 1 20 21
M  V30 21 1 12 17
M  V30 22 1 14 18
M  V30 END BOND
M  V30 END CTAB
M  END
>  <Molecule Name>
Phthalic acid, n-propyl cyclohexyl ester

>  <Activity Label>
0

>  <SMILES>
CCCOC(c(cccc1)c1C(OC1CCCCC1)=O)=O

>  <Molecular Formula>
C17H22O4

>  <InChIKey>
OZBBXRCZRHVFTK-UHFFFAOYSA-N

>  <Repellency>
Inactive

>  <Reference DOI>
10.3390/toxics11100837

>  <Target Organism>
Not applied

$$$$
Compound 1063
Actelion Java MolfileCreator 2.0

  0  0  0  0  0  0              0 V3000
M  V30 BEGIN CTAB
M  V30 COUNTS 21 22 0 0 0
M  V30 BEGIN ATOM
M  V30 1 O 0.0 0.0 0.0 0
M  V30 2 C 0.0 1.5008 0.0 0
M  V30 3 O -1.2999 2.2453 0.0 0
M  V30 4 C 1.2999 2.2453 0.0 0 CFG=1
M  V30 5 C -2.5998 1.5008 0.0 0
M  V30 6 O 2.5998 1.5008 0.0 0
M  V30 7 C 1.2999 3.7461 0.0 0
M  V30 8 C -3.8997 2.2571 0.0 0
M  V30 9 C -2.5998 0.0 0.0 0
M  V30 10 C 3.8997 2.2453 0.0 0
M  V30 11 C -5.1997 1.5126 0.0 0
M  V30 12 C -3.8997 -0.7445 0.0 0
M  V30 13 O 3.8997 3.7461 0.0 0
M  V30 14 C 5.1997 1.5008 0.0 0
M  V30 15 C -5.1997 0.0118 0.0 0
M  V30 16 C -6.4996 -0.7326 0.0 0
M  V30 17 C -7.7995 0.0236 0.0 0
M  V30 18 C -6.4996 -2.2335 0.0 0
M  V30 19 C -9.0995 -0.7208 0.0 0
M  V30 20 C -7.7995 -2.978 0.0 0
M  V30 21 C -9.0995 -2.2217 0.0 0
M  V30 END ATOM
M  V30 BEGIN BOND
M  V30 1 2 1 2
M  V30 2 1 2 3
M  V30 3 1 2 4
M  V30 4 1 3 5
M  V30 5 1 4 6
M  V30 6 1 4 7 CFG=3
M  V30 7 2 5 8
M  V30 8 1 5 9
M  V30 9 1 6 10
M  V30 10 1 8 11
M  V30 11 2 9 12
M  V30 12 2 10 13
M  V30 13 1 10 14
M  V30 14 2 11 15
M  V30 15 1 15 16
M  V30 16 1 16 17
M  V30 17 1 16 18
M  V30 18 1 17 19
M  V30 19 1 18 20
M  V30 20 1 19 21
M  V30 21 1 12 15
M  V30 22 1 20 21
M  V30 END BOND
M  V30 BEGIN COLLECTION
M  V30 MDLV30/STERAC1 ATOMS=(1 4)
M  V30 END COLLECTION
M  V30 END CTAB
M  END
>  <Molecule Name>
alpha-Acetoxypropionic acid, p-cyclohexylphenyl ester

>  <Activity Label>
0

>  <SMILES>
CC(C(Oc1ccc(C2CCCCC2)cc1)=O)OC(C)=O

>  <Molecular Formula>
C17H22O4

>  <InChIKey>
PRYRKVAHPWLHKU-UHFFFAOYSA-N

>  <Repellency>
Inactive

>  <Reference DOI>
10.3390/toxics11100837

>  <Target Organism>
Not applied

$$$$
Compound 1064
Actelion Java MolfileCreator 2.0

  0  0  0  0  0  0              0 V3000
M  V30 BEGIN CTAB
M  V30 COUNTS 21 22 0 0 0
M  V30 BEGIN ATOM
M  V30 1 O 0.0 0.0 0.0 0
M  V30 2 C 0.0 1.4446 0.0 0
M  V30 3 O -1.2562 2.1732 0.0 0
M  V30 4 C 1.2562 2.1732 0.0 0
M  V30 5 C -2.5124 1.4446 0.0 0
M  V30 6 C 1.4069 3.6178 0.0 0
M  V30 7 C 2.5752 1.5828 0.0 0
M  V30 8 C -3.7686 2.1732 0.0 0
M  V30 9 C -2.5124 0.0 0.0 0
M  V30 10 C 2.8264 3.9193 0.0 0
M  V30 11 C 2.6129 5.2132 0.0 0
M  V30 12 C 2.8767 0.1633 0.0 0
M  V30 13 C 3.5425 2.6631 0.0 0
M  V30 14 C -5.0248 1.4446 0.0 0
M  V30 15 C 3.9319 4.6228 0.0 0
M  V30 16 O 4.2585 -0.2889 0.0 0
M  V30 17 O 1.7963 -0.8039 0.0 0
M  V30 18 C 2.0978 -2.2235 0.0 0
M  V30 19 C 1.0175 -3.1907 0.0 0
M  V30 20 C 3.4797 -2.6757 0.0 0
M  V30 21 C 1.319 -4.6103 0.0 0
M  V30 END ATOM
M  V30 BEGIN BOND
M  V30 1 2 1 2
M  V30 2 1 2 3
M  V30 3 1 2 4
M  V30 4 1 3 5
M  V30 5 2 4 6
M  V30 6 1 4 7
M  V30 7 1 5 8
M  V30 8 1 5 9
M  V30 9 1 6 10
M  V30 10 1 6 11
M  V30 11 1 7 12
M  V30 12 1 7 13
M  V30 13 1 8 14
M  V30 14 1 11 15
M  V30 15 2 12 16
M  V30 16 1 12 17
M  V30 17 1 17 18
M  V30 18 1 18 19
M  V30 19 1 18 20
M  V30 20 1 19 21
M  V30 21 1 10 13
M  V30 22 1 13 15
M  V30 END BOND
M  V30 END CTAB
M  END
>  <Molecule Name>
Bicyclo-(2,2,1)heptene-2,3-dicarboxylic acid, di-sec-butyl ester

>  <Activity Label>
0

>  <SMILES>
CCC(C)OC(C1C(C(OC(C)CC)=O)=C2CC1CC2)=O

>  <Molecular Formula>
C17H26O4

>  <InChIKey>
NKVQFERABZXBOL-UHFFFAOYSA-N

>  <Repellency>
Inactive

>  <Reference DOI>
10.3390/toxics11100837

>  <Target Organism>
Not applied

$$$$
Compound 1065
Actelion Java MolfileCreator 2.0

  0  0  0  0  0  0              0 V3000
M  V30 BEGIN CTAB
M  V30 COUNTS 21 22 0 0 0
M  V30 BEGIN ATOM
M  V30 1 P 0.0 0.0 0.0 0
M  V30 2 O 1.3001 -0.7446 0.0 0
M  V30 3 O 0.0 -1.501 0.0 0
M  V30 4 O -1.3001 0.7446 0.0 0
M  V30 5 O 1.3001 0.7446 0.0 0
M  V30 6 C 1.3001 -2.2457 0.0 0
M  V30 7 C -2.6003 0.0 0.0 0
M  V30 8 C 2.6003 0.0 0.0 0
M  V30 9 C 2.6003 -1.4892 0.0 0
M  V30 10 C 1.3001 -3.7468 0.0 0
M  V30 11 C -3.9004 0.7564 0.0 0
M  V30 12 C -2.6003 -1.501 0.0 0
M  V30 13 C 3.9004 0.7446 0.0 0
M  V30 14 C 3.9004 -2.2338 0.0 0
M  V30 15 C 2.6003 -4.4914 0.0 0
M  V30 16 C -5.2006 0.0118 0.0 0
M  V30 17 C -3.9004 -2.2457 0.0 0
M  V30 18 C 5.2006 0.0 0.0 0
M  V30 19 C 3.9004 -3.7349 0.0 0
M  V30 20 C -5.2006 -1.4892 0.0 0
M  V30 21 C 6.5007 0.7446 0.0 0
M  V30 END ATOM
M  V30 BEGIN BOND
M  V30 1 2 1 2
M  V30 2 1 1 3
M  V30 3 1 1 4
M  V30 4 1 1 5
M  V30 5 1 3 6
M  V30 6 1 4 7
M  V30 7 1 5 8
M  V30 8 2 6 9
M  V30 9 1 6 10
M  V30 10 2 7 11
M  V30 11 1 7 12
M  V30 12 1 8 13
M  V30 13 1 9 14
M  V30 14 2 10 15
M  V30 15 1 11 16
M  V30 16 2 12 17
M  V30 17 1 13 18
M  V30 18 2 14 19
M  V30 19 2 16 20
M  V30 20 1 18 21
M  V30 21 1 15 19
M  V30 22 1 17 20
M  V30 END BOND
M  V30 END CTAB
M  END
>  <Molecule Name>
Phosphoric acid, butyl diphenyl ester

>  <Activity Label>
0

>  <SMILES>
CCCCOP(Oc1ccccc1)(Oc1ccccc1)=O

>  <Molecular Formula>
C16H19O4P

>  <InChIKey>
DIBUFQMCUZYQKN-UHFFFAOYSA-N

>  <Repellency>
Inactive

>  <Reference DOI>
10.3390/toxics11100837

>  <Target Organism>
Not applied

$$$$
Compound 1066
Actelion Java MolfileCreator 2.0

  0  0  0  0  0  0              0 V3000
M  V30 BEGIN CTAB
M  V30 COUNTS 21 22 0 0 0
M  V30 BEGIN ATOM
M  V30 1 O 0.0 0.0 0.0 0
M  V30 2 C 0.0 -1.5002 0.0 0
M  V30 3 O 1.2993 -2.2562 0.0 0
M  V30 4 C -1.2993 -2.2562 0.0 0
M  V30 5 C 2.5987 -1.512 0.0 0
M  V30 6 O -2.5987 -1.512 0.0 0
M  V30 7 C 3.8981 -2.268 0.0 0
M  V30 8 C -3.8981 -2.268 0.0 0
M  V30 9 O 5.2684 -1.6537 0.0 0
M  V30 10 C 4.0517 -3.7564 0.0 0
M  V30 11 C -5.1975 -1.5238 0.0 0
M  V30 12 C 6.2725 -2.7641 0.0 0
M  V30 13 C 5.5165 -4.0635 0.0 0
M  V30 14 O -5.1975 -0.0236 0.0 0
M  V30 15 O -6.4969 -2.2798 0.0 0
M  V30 16 C -7.7963 -1.5356 0.0 0
M  V30 17 C -9.0957 -2.2916 0.0 0
M  V30 18 O -9.2493 -3.78 0.0 0
M  V30 19 C -10.466 -1.6774 0.0 0
M  V30 20 C -10.7141 -4.0871 0.0 0
M  V30 21 C -11.4701 -2.7877 0.0 0
M  V30 END ATOM
M  V30 BEGIN BOND
M  V30 1 2 1 2
M  V30 2 1 2 3
M  V30 3 1 2 4
M  V30 4 1 3 5
M  V30 5 1 4 6
M  V30 6 1 5 7
M  V30 7 1 6 8
M  V30 8 1 7 9
M  V30 9 1 7 10
M  V30 10 1 8 11
M  V30 11 1 9 12
M  V30 12 1 10 13
M  V30 13 2 11 14
M  V30 14 1 11 15
M  V30 15 1 15 16
M  V30 16 1 16 17
M  V30 17 1 17 18
M  V30 18 1 17 19
M  V30 19 1 18 20
M  V30 20 1 19 21
M  V30 21 1 12 13
M  V30 22 1 20 21
M  V30 END BOND
M  V30 END CTAB
M  END
>  <Molecule Name>
Diglycolic acid, ditetrahydrofurfuryl ester

>  <Activity Label>
0

>  <SMILES>
O=C(COCC(OCC1OCCC1)=O)OCC1OCCC1

>  <Molecular Formula>
C14H22O7

>  <InChIKey>
AWINPZQZNIGXPA-UHFFFAOYSA-N

>  <Repellency>
Inactive

>  <Reference DOI>
10.3390/toxics11100837

>  <Target Organism>
Not applied

$$$$
Compound 1067
Actelion Java MolfileCreator 2.0

  0  0  0  0  0  0              0 V3000
M  V30 BEGIN CTAB
M  V30 COUNTS 21 21 0 0 0
M  V30 BEGIN ATOM
M  V30 1 O 0.0 0.0 0.0 0
M  V30 2 C -1.2989 0.7439 0.0 0
M  V30 3 O -2.5979 -0.0118 0.0 0
M  V30 4 C -1.2989 2.2436 0.0 0
M  V30 5 C -3.8969 0.7321 0.0 0
M  V30 6 C 0.0 2.9876 0.0 0
M  V30 7 C -2.5979 2.9876 0.0 0
M  V30 8 C -5.1959 -0.0236 0.0 0
M  V30 9 C 1.2989 2.2318 0.0 0
M  V30 10 C 0.0 4.4873 0.0 0
M  V30 11 C -2.5979 4.4873 0.0 0
M  V30 12 C -6.4948 0.7203 0.0 0
M  V30 13 O 1.2989 0.7321 0.0 0
M  V30 14 O 2.5979 2.9876 0.0 0
M  V30 15 C -1.2989 5.2313 0.0 0
M  V30 16 C -7.7938 -0.0354 0.0 0
M  V30 17 C 3.8969 2.2318 0.0 0
M  V30 18 C -9.0928 0.7085 0.0 0
M  V30 19 C 5.1959 2.9876 0.0 0
M  V30 20 C 6.4948 2.2318 0.0 0
M  V30 21 C 7.7938 2.9876 0.0 0
M  V30 END ATOM
M  V30 BEGIN BOND
M  V30 1 2 1 2
M  V30 2 1 2 3
M  V30 3 1 2 4
M  V30 4 1 3 5
M  V30 5 2 4 6
M  V30 6 1 4 7
M  V30 7 1 5 8
M  V30 8 1 6 9
M  V30 9 1 6 10
M  V30 10 2 7 11
M  V30 11 1 8 12
M  V30 12 2 9 13
M  V30 13 1 9 14
M  V30 14 2 10 15
M  V30 15 1 12 16
M  V30 16 1 14 17
M  V30 17 1 16 18
M  V30 18 1 17 19
M  V30 19 1 19 20
M  V30 20 1 20 21
M  V30 21 1 11 15
M  V30 END BOND
M  V30 END CTAB
M  END
>  <Molecule Name>
Phthalic acid butyl amyl ester

>  <Activity Label>
0

>  <SMILES>
CCCCCOC(c(cccc1)c1C(OCCCC)=O)=O

>  <Molecular Formula>
C17H24O4

>  <InChIKey>
QCSMHPYITCGSTG-UHFFFAOYSA-N

>  <Repellency>
Inactive

>  <Reference DOI>
10.3390/toxics11100837

>  <Target Organism>
Not applied

$$$$
Compound 1068
Actelion Java MolfileCreator 2.0

  0  0  0  0  0  0              0 V3000
M  V30 BEGIN CTAB
M  V30 COUNTS 21 21 0 0 0
M  V30 BEGIN ATOM
M  V30 1 O 0.0 0.0 0.0 0
M  V30 2 C 0.0 -1.5018 0.0 0
M  V30 3 O -1.3008 -2.2468 0.0 0
M  V30 4 C 1.3008 -2.2468 0.0 0
M  V30 5 C -2.6016 -1.5018 0.0 0
M  V30 6 C 2.6016 -1.5018 0.0 0
M  V30 7 C 1.3008 -3.7487 0.0 0
M  V30 8 C -3.9024 -2.2468 0.0 0
M  V30 9 C 2.6016 0.0 0.0 0
M  V30 10 C 3.9024 -2.2468 0.0 0
M  V30 11 C 2.6016 -4.4937 0.0 0
M  V30 12 C -5.2032 -1.5018 0.0 0
M  V30 13 O 1.3008 0.745 0.0 0
M  V30 14 O 3.9024 0.7568 0.0 0
M  V30 15 C 3.9024 -3.7487 0.0 0
M  V30 16 C -6.504 -2.2468 0.0 0
M  V30 17 C 3.9024 2.2586 0.0 0
M  V30 18 C -7.8048 -1.5018 0.0 0
M  V30 19 C -9.1056 -2.2468 0.0 0
M  V30 20 C -10.4065 -1.5018 0.0 0
M  V30 21 C -11.7073 -2.2468 0.0 0
M  V30 END ATOM
M  V30 BEGIN BOND
M  V30 1 2 1 2
M  V30 2 1 2 3
M  V30 3 1 2 4
M  V30 4 1 3 5
M  V30 5 2 4 6
M  V30 6 1 4 7
M  V30 7 1 5 8
M  V30 8 1 6 9
M  V30 9 1 6 10
M  V30 10 2 7 11
M  V30 11 1 8 12
M  V30 12 2 9 13
M  V30 13 1 9 14
M  V30 14 2 10 15
M  V30 15 1 12 16
M  V30 16 1 14 17
M  V30 17 1 16 18
M  V30 18 1 18 19
M  V30 19 1 19 20
M  V30 20 1 20 21
M  V30 21 1 11 15
M  V30 END BOND
M  V30 END CTAB
M  END
>  <Molecule Name>
Phthalic acid, methyl n-octyl ester

>  <Activity Label>
0

>  <SMILES>
CCCCCCCCOC(c(cccc1)c1C(OC)=O)=O

>  <Molecular Formula>
C17H24O4

>  <InChIKey>
SJMMDRTYFFDPBJ-UHFFFAOYSA-N

>  <Repellency>
Inactive

>  <Reference DOI>
10.3390/toxics11100837

>  <Target Organism>
Not applied

$$$$
Compound 1069
Actelion Java MolfileCreator 2.0

  0  0  0  0  0  0              0 V3000
M  V30 BEGIN CTAB
M  V30 COUNTS 21 21 0 0 0
M  V30 BEGIN ATOM
M  V30 1 O 0.0 0.0 0.0 0
M  V30 2 C 0.0 -1.4994 0.0 0
M  V30 3 O -1.2987 -2.255 0.0 0
M  V30 4 C 1.2987 -2.255 0.0 0
M  V30 5 C -2.5974 -1.5112 0.0 0 CFG=2
M  V30 6 C 2.5974 -1.5112 0.0 0
M  V30 7 C -2.5974 -0.0118 0.0 0
M  V30 8 C -3.8962 -2.2669 0.0 0
M  V30 9 C -2.5974 -3.0107 0.0 0
M  V30 10 C 3.8962 -2.2669 0.0 0
M  V30 11 C -1.2987 0.732 0.0 0
M  V30 12 C -5.1949 -1.523 0.0 0
M  V30 13 C 3.8962 -3.7663 0.0 0
M  V30 14 C 5.1949 -1.523 0.0 0
M  V30 15 C -6.4937 -2.2787 0.0 0
M  V30 16 C 5.1949 -4.522 0.0 0
M  V30 17 C 6.4937 -2.2669 0.0 0
M  V30 18 C -7.7924 -1.5348 0.0 0
M  V30 19 C 6.4937 -3.7781 0.0 0
M  V30 20 C -9.0912 -2.2905 0.0 0
M  V30 21 C -7.7924 -0.0354 0.0 0
M  V30 END ATOM
M  V30 BEGIN BOND
M  V30 1 2 1 2
M  V30 2 1 2 3
M  V30 3 1 2 4
M  V30 4 1 3 5
M  V30 5 2 4 6 CFG=2
M  V30 6 1 5 7
M  V30 7 1 5 8
M  V30 8 1 5 9 CFG=3
M  V30 9 1 6 10
M  V30 10 2 7 11
M  V30 11 1 8 12
M  V30 12 2 10 13
M  V30 13 1 10 14
M  V30 14 1 12 15
M  V30 15 1 13 16
M  V30 16 2 14 17
M  V30 17 2 15 18
M  V30 18 2 16 19
M  V30 19 1 18 20
M  V30 20 1 18 21
M  V30 21 1 17 19
M  V30 END BOND
M  V30 BEGIN COLLECTION
M  V30 MDLV30/STERAC1 ATOMS=(1 5)
M  V30 END COLLECTION
M  V30 END CTAB
M  END
>  <Molecule Name>
Cinnamic acid, linalyl ester

>  <Activity Label>
0

>  <SMILES>
CC(CCC=C(C)C)(C=C)OC(C=Cc1ccccc1)=O

>  <Molecular Formula>
C19H24O2

>  <InChIKey>
DPFUEXLIKDHJNB-UHFFFAOYSA-N

>  <Repellency>
Inactive

>  <Reference DOI>
10.3390/toxics11100837

>  <Target Organism>
Not applied

$$$$
Compound 1070
Actelion Java MolfileCreator 2.0

  0  0  0  0  0  0              0 V3000
M  V30 BEGIN CTAB
M  V30 COUNTS 21 21 0 0 0
M  V30 BEGIN ATOM
M  V30 1 O 0.0 0.0 0.0 0
M  V30 2 C 0.0 -1.5 0.0 0
M  V30 3 O 1.2992 -2.2559 0.0 0
M  V30 4 C -1.2992 -2.2559 0.0 0
M  V30 5 C 2.5984 -1.5118 0.0 0
M  V30 6 C -2.5984 -1.5118 0.0 0
M  V30 7 C -3.8977 -2.2677 0.0 0
M  V30 8 C -5.1969 -1.5236 0.0 0
M  V30 9 C -6.4962 -2.2795 0.0 0
M  V30 10 C -7.7954 -1.5354 0.0 0
M  V30 11 C -9.0947 -2.2913 0.0 0
M  V30 12 C -10.3939 -1.5472 0.0 0
M  V30 13 C -11.6931 -2.3032 0.0 0
M  V30 14 C -12.9924 -1.559 0.0 0
M  V30 15 C -14.2916 -2.315 0.0 0
M  V30 16 C -15.5909 -1.5709 0.0 0
M  V30 17 C -16.8901 -2.3268 0.0 0 CFG=2
M  V30 18 C -18.2602 -1.7126 0.0 0
M  V30 19 C -17.0437 -3.815 0.0 0
M  V30 20 C -19.2642 -2.8229 0.0 0
M  V30 21 C -18.5083 -4.1221 0.0 0
M  V30 END ATOM
M  V30 BEGIN BOND
M  V30 1 2 1 2
M  V30 2 1 2 3
M  V30 3 1 2 4
M  V30 4 1 3 5
M  V30 5 1 4 6
M  V30 6 1 6 7
M  V30 7 1 7 8
M  V30 8 1 8 9
M  V30 9 1 9 10
M  V30 10 1 10 11
M  V30 11 1 11 12
M  V30 12 1 12 13
M  V30 13 1 13 14
M  V30 14 1 14 15
M  V30 15 1 15 16
M  V30 16 1 17 16 CFG=1
M  V30 17 1 17 18
M  V30 18 1 17 19
M  V30 19 2 18 20
M  V30 20 1 19 21
M  V30 21 1 20 21
M  V30 END BOND
M  V30 BEGIN COLLECTION
M  V30 MDLV30/STERAC1 ATOMS=(1 17)
M  V30 END COLLECTION
M  V30 END CTAB
M  END
>  <Molecule Name>
Chaulmoogric acid, methyl ester

>  <Activity Label>
0

>  <SMILES>
COC(CCCCCCCCCCCCC1C=CCC1)=O

>  <Molecular Formula>
C19H34O2

>  <InChIKey>
PEZOXKYCEXAUDW-UHFFFAOYSA-N

>  <Repellency>
Inactive

>  <Reference DOI>
10.3390/toxics11100837

>  <Target Organism>
Not applied

$$$$
Compound 1071
Actelion Java MolfileCreator 2.0

  0  0  0  0  0  0              0 V3000
M  V30 BEGIN CTAB
M  V30 COUNTS 21 21 0 0 0
M  V30 BEGIN ATOM
M  V30 1 Cl 0.0 0.0 0.0 0
M  V30 2 C 0.0 -1.5001 0.0 0
M  V30 3 C -1.2993 -2.2443 0.0 0
M  V30 4 C 1.2993 -2.2561 0.0 0
M  V30 5 O -2.5987 -1.5001 0.0 0
M  V30 6 C -1.2993 -3.7444 0.0 0
M  V30 7 C 1.2993 -3.7563 0.0 0
M  V30 8 C -3.898 -2.2561 0.0 0
M  V30 9 C 0.0 -4.5004 0.0 0
M  V30 10 C -2.5987 -4.4886 0.0 0
M  V30 11 C 2.5987 -4.5122 0.0 0
M  V30 12 C -5.1974 -1.5119 0.0 0
M  V30 13 C -3.898 -3.7444 0.0 0
M  V30 14 C -3.3428 -5.788 0.0 0
M  V30 15 C -1.8427 -5.788 0.0 0
M  V30 16 C 2.5987 -6.0124 0.0 0
M  V30 17 C 4.0988 -4.5122 0.0 0
M  V30 18 C 3.3428 -3.2129 0.0 0
M  V30 19 O -6.4967 -2.2679 0.0 0
M  V30 20 C -5.1974 -4.4886 0.0 0
M  V30 21 C 3.898 -6.7684 0.0 0
M  V30 END ATOM
M  V30 BEGIN BOND
M  V30 1 1 1 2
M  V30 2 2 2 3
M  V30 3 1 2 4
M  V30 4 1 3 5
M  V30 5 1 3 6
M  V30 6 2 4 7
M  V30 7 1 5 8
M  V30 8 2 6 9
M  V30 9 1 6 10
M  V30 10 1 7 11
M  V30 11 1 8 12
M  V30 12 1 10 13
M  V30 13 1 10 14
M  V30 14 1 10 15
M  V30 15 1 11 16
M  V30 16 1 11 17
M  V30 17 1 11 18
M  V30 18 1 12 19
M  V30 19 1 13 20
M  V30 20 1 16 21
M  V30 21 1 7 9
M  V30 END BOND
M  V30 END CTAB
M  END
>  <Molecule Name>
2-(2-Chloro-4,6-di-tert-amylphenoxy)ethanol

>  <Activity Label>
0

>  <SMILES>
CCC(C)(C)c(cc1C(C)(C)CC)cc(Cl)c1OCCO

>  <Molecular Formula>
C18H29O2Cl

>  <InChIKey>
WKNSSMHKKWAYKT-UHFFFAOYSA-N

>  <Repellency>
Inactive

>  <Reference DOI>
10.3390/toxics11100837

>  <Target Organism>
Not applied

$$$$
Compound 1072
Actelion Java MolfileCreator 2.0

  0  0  0  0  0  0              0 V3000
M  V30 BEGIN CTAB
M  V30 COUNTS 21 21 0 0 0
M  V30 BEGIN ATOM
M  V30 1 O 0.0 0.0 0.0 0
M  V30 2 C 1.2988 0.7438 0.0 0
M  V30 3 O 2.5977 0.0 0.0 0
M  V30 4 C 1.2988 2.2434 0.0 0
M  V30 5 C 2.5977 -1.4995 0.0 0
M  V30 6 C 0.0 2.9873 0.0 0
M  V30 7 C 2.5977 2.9873 0.0 0
M  V30 8 C 3.8965 -2.2552 0.0 0
M  V30 9 O 0.0 4.4869 0.0 0
M  V30 10 O -1.2988 2.2316 0.0 0
M  V30 11 C 3.8965 2.2316 0.0 0
M  V30 12 C -2.5977 2.9755 0.0 0
M  V30 13 C 5.1954 2.9755 0.0 0
M  V30 14 C -3.8965 2.2198 0.0 0
M  V30 15 O 6.4943 2.2198 0.0 0
M  V30 16 C 7.7931 2.9637 0.0 0
M  V30 17 C 9.092 2.208 0.0 0
M  V30 18 C 7.7931 4.4633 0.0 0
M  V30 19 C 10.3909 2.9637 0.0 0
M  V30 20 C 9.092 5.219 0.0 0
M  V30 21 C 10.3909 4.4633 0.0 0
M  V30 END ATOM
M  V30 BEGIN BOND
M  V30 1 2 1 2
M  V30 2 1 2 3
M  V30 3 1 2 4
M  V30 4 1 3 5
M  V30 5 1 4 6
M  V30 6 1 4 7
M  V30 7 1 5 8
M  V30 8 2 6 9
M  V30 9 1 6 10
M  V30 10 1 7 11
M  V30 11 1 10 12
M  V30 12 1 11 13
M  V30 13 1 12 14
M  V30 14 1 13 15
M  V30 15 1 15 16
M  V30 16 2 16 17
M  V30 17 1 16 18
M  V30 18 1 17 19
M  V30 19 2 18 20
M  V30 20 2 19 21
M  V30 21 1 20 21
M  V30 END BOND
M  V30 END CTAB
M  END
>  <Molecule Name>
gamma-Phenoxypropylmalonic acid, diethyl ester

>  <Activity Label>
0

>  <SMILES>
CCOC(C(CCCOc1ccccc1)C(OCC)=O)=O

>  <Molecular Formula>
C16H22O5

>  <InChIKey>
AMGGSCWBFBWZTO-UHFFFAOYSA-N

>  <Repellency>
Inactive

>  <Reference DOI>
10.3390/toxics11100837

>  <Target Organism>
Not applied

$$$$
Compound 1073
Actelion Java MolfileCreator 2.0

  0  0  0  0  0  0              0 V3000
M  V30 BEGIN CTAB
M  V30 COUNTS 21 21 0 0 0
M  V30 BEGIN ATOM
M  V30 1 O 0.0 0.0 0.0 0
M  V30 2 C 0.0 1.5003 0.0 0
M  V30 3 O -1.2995 2.2445 0.0 0
M  V30 4 C 1.2995 2.2445 0.0 0
M  V30 5 C -2.599 1.4885 0.0 0
M  V30 6 O 2.599 1.4885 0.0 0
M  V30 7 C 1.2995 3.7449 0.0 0
M  V30 8 O -3.9693 2.1028 0.0 0
M  V30 9 C -2.7525 0.0 0.0 0
M  V30 10 C 3.8985 2.2327 0.0 0
M  V30 11 C -4.9735 0.9923 0.0 0
M  V30 12 C -4.2174 -0.3071 0.0 0
M  V30 13 O 3.8985 3.7331 0.0 0
M  V30 14 C 5.198 1.4767 0.0 0
M  V30 15 C 6.4975 2.2209 0.0 0
M  V30 16 C 7.797 1.4648 0.0 0
M  V30 17 C 9.0965 2.2091 0.0 0
M  V30 18 C 10.396 1.453 0.0 0
M  V30 19 C 11.6955 2.1973 0.0 0
M  V30 20 C 12.995 1.4412 0.0 0
M  V30 21 C 14.2945 2.1855 0.0 0
M  V30 END ATOM
M  V30 BEGIN BOND
M  V30 1 2 1 2
M  V30 2 1 2 3
M  V30 3 1 2 4
M  V30 4 1 3 5
M  V30 5 1 4 6
M  V30 6 1 4 7
M  V30 7 1 5 8
M  V30 8 1 5 9
M  V30 9 1 6 10
M  V30 10 1 8 11
M  V30 11 1 9 12
M  V30 12 2 10 13
M  V30 13 1 10 14
M  V30 14 1 14 15
M  V30 15 1 15 16
M  V30 16 1 16 17
M  V30 17 1 17 18
M  V30 18 1 18 19
M  V30 19 1 19 20
M  V30 20 1 20 21
M  V30 21 1 11 12
M  V30 END BOND
M  V30 END CTAB
M  END
>  <Molecule Name>
alpha-Pelargonoxypropionic acid, tetrahydrofuryl ester

>  <Activity Label>
0

>  <SMILES>
CCCCCCCCC(OC(C)C(OC1OCCC1)=O)=O

>  <Molecular Formula>
C16H28O5

>  <InChIKey>
WSAKVVZTNJAYLP-UHFFFAOYSA-N

>  <Repellency>
Inactive

>  <Reference DOI>
10.3390/toxics11100837

>  <Target Organism>
Not applied

$$$$
Compound 1074
Actelion Java MolfileCreator 2.0

  0  0  0  0  0  0              0 V3000
M  V30 BEGIN CTAB
M  V30 COUNTS 21 21 0 0 0
M  V30 BEGIN ATOM
M  V30 1 O 0.0 0.0 0.0 0
M  V30 2 C 0.0 -1.4993 0.0 0
M  V30 3 O -1.2986 -2.2548 0.0 0
M  V30 4 C 1.2986 -2.2548 0.0 0
M  V30 5 C -2.5972 -1.5111 0.0 0
M  V30 6 C 2.5972 -1.5111 0.0 0
M  V30 7 C -3.8958 -2.2666 0.0 0
M  V30 8 C 3.8958 -2.2666 0.0 0
M  V30 9 C -3.8958 -3.7659 0.0 0
M  V30 10 C -5.1944 -1.5229 0.0 0
M  V30 11 C 5.1944 -1.5229 0.0 0
M  V30 12 C 3.8958 -3.7659 0.0 0
M  V30 13 C -2.5972 -4.5097 0.0 0
M  V30 14 C -6.4931 -2.2784 0.0 0
M  V30 15 C 6.4931 -2.2784 0.0 0
M  V30 16 C 5.1944 -4.5215 0.0 0
M  V30 17 C 6.4931 -3.7778 0.0 0
M  V30 18 O 7.7917 -4.5333 0.0 0
M  V30 19 C 7.7917 -6.0326 0.0 0
M  V30 20 C 9.0903 -6.7882 0.0 0
M  V30 21 C 6.4931 -6.7882 0.0 0
M  V30 END ATOM
M  V30 BEGIN BOND
M  V30 1 2 1 2
M  V30 2 1 2 3
M  V30 3 1 2 4
M  V30 4 1 3 5
M  V30 5 2 4 6 CFG=2
M  V30 6 1 5 7
M  V30 7 1 6 8
M  V30 8 1 7 9
M  V30 9 1 7 10
M  V30 10 2 8 11
M  V30 11 1 8 12
M  V30 12 1 9 13
M  V30 13 1 10 14
M  V30 14 1 11 15
M  V30 15 2 12 16
M  V30 16 2 15 17
M  V30 17 1 17 18
M  V30 18 1 18 19
M  V30 19 1 19 20
M  V30 20 1 19 21
M  V30 21 1 16 17
M  V30 END BOND
M  V30 END CTAB
M  END
>  <Molecule Name>
p-iso-Propoxycinnamic acid, 2-ethyl-n-butyl ester

>  <Activity Label>
0

>  <SMILES>
CCC(CC)COC(C=Cc(cc1)ccc1OC(C)C)=O

>  <Molecular Formula>
C18H26O3

>  <InChIKey>
CUFRRKWITBJWGG-UHFFFAOYSA-N

>  <Repellency>
Inactive

>  <Reference DOI>
10.3390/toxics11100837

>  <Target Organism>
Not applied

$$$$
Compound 1075
Actelion Java MolfileCreator 2.0

  0  0  0  0  0  0              0 V3000
M  V30 BEGIN CTAB
M  V30 COUNTS 21 21 0 0 0
M  V30 BEGIN ATOM
M  V30 1 S 0.0 0.0 0.0 0
M  V30 2 O 1.4994 0.0 0.0 0
M  V30 3 O 0.7438 1.2987 0.0 0
M  V30 4 N 0.0 -1.4994 0.0 0
M  V30 5 C -1.2987 0.7556 0.0 0
M  V30 6 C 1.2987 -2.255 0.0 0
M  V30 7 C -1.2987 -2.255 0.0 0
M  V30 8 C -1.2987 2.255 0.0 0
M  V30 9 C -2.5974 0.0118 0.0 0
M  V30 10 C 2.5974 -1.5112 0.0 0
M  V30 11 C -2.5974 -1.5112 0.0 0
M  V30 12 C -2.5974 3.0107 0.0 0
M  V30 13 C -3.8962 0.7674 0.0 0
M  V30 14 C 3.8962 -2.2668 0.0 0
M  V30 15 C -3.8962 -2.2668 0.0 0
M  V30 16 C -3.8962 2.2668 0.0 0
M  V30 17 C 5.1949 -1.523 0.0 0
M  V30 18 C -5.1949 -1.523 0.0 0
M  V30 19 C -5.1949 3.0225 0.0 0
M  V30 20 C 6.4936 -2.2786 0.0 0
M  V30 21 C -6.4936 -2.2786 0.0 0
M  V30 END ATOM
M  V30 BEGIN BOND
M  V30 1 2 1 2
M  V30 2 2 1 3
M  V30 3 1 1 4
M  V30 4 1 1 5
M  V30 5 1 4 6
M  V30 6 1 4 7
M  V30 7 2 5 8
M  V30 8 1 5 9
M  V30 9 1 6 10
M  V30 10 1 7 11
M  V30 11 1 8 12
M  V30 12 2 9 13
M  V30 13 1 10 14
M  V30 14 1 11 15
M  V30 15 2 12 16
M  V30 16 1 14 17
M  V30 17 1 15 18
M  V30 18 1 16 19
M  V30 19 1 17 20
M  V30 20 1 18 21
M  V30 21 1 13 16
M  V30 END BOND
M  V30 END CTAB
M  END
>  <Molecule Name>
N,N-Diamyl-p-toluenesulfonamide

>  <Activity Label>
0

>  <SMILES>
CCCCCN(CCCCC)S(c1ccc(C)cc1)(=O)=O

>  <Molecular Formula>
C17H29NO2S

>  <InChIKey>
AYQXPLSZKSWBGO-UHFFFAOYSA-N

>  <Repellency>
Inactive

>  <Reference DOI>
10.3390/toxics11100837

>  <Target Organism>
Not applied

$$$$
Compound 1076
Actelion Java MolfileCreator 2.0

  0  0  0  0  0  0              0 V3000
M  V30 BEGIN CTAB
M  V30 COUNTS 21 23 0 0 0
M  V30 BEGIN ATOM
M  V30 1 O 0.0 0.0 0.0 0
M  V30 2 C 0.0 1.4276 0.0 0
M  V30 3 O -1.2343 2.1415 0.0 0
M  V30 4 C 1.2343 2.1415 0.0 0
M  V30 5 C -2.4687 1.4276 0.0 0
M  V30 6 C 2.4687 1.4276 0.0 0
M  V30 7 C -3.7625 2.0076 0.0 0
M  V30 8 C -2.6174 0.0148 0.0 0
M  V30 9 C 3.703 2.1415 0.0 0
M  V30 10 C -4.7143 0.9517 0.0 0
M  V30 11 C -5.5769 1.9928 0.0 0
M  V30 12 C -3.5543 3.4205 0.0 0
M  V30 13 C -4.0153 -0.2825 0.0 0
M  V30 14 C 4.9374 1.4276 0.0 0
M  V30 15 C 3.703 3.5692 0.0 0
M  V30 16 C -6.142 1.8143 0.0 0
M  V30 17 C -6.2907 0.4015 0.0 0
M  V30 18 C -5.7702 0.1041 0.0 0
M  V30 19 C 6.1718 2.1415 0.0 0
M  V30 20 C 4.9374 4.283 0.0 0
M  V30 21 C 6.1718 3.5692 0.0 0
M  V30 END ATOM
M  V30 BEGIN BOND
M  V30 1 2 1 2
M  V30 2 1 2 3
M  V30 3 1 2 4
M  V30 4 1 3 5
M  V30 5 2 4 6 CFG=2
M  V30 6 1 5 7
M  V30 7 1 5 8
M  V30 8 1 6 9
M  V30 9 1 7 10
M  V30 10 1 7 11
M  V30 11 1 7 12
M  V30 12 1 8 13
M  V30 13 2 9 14
M  V30 14 1 9 15
M  V30 15 1 10 16
M  V30 16 1 10 17
M  V30 17 1 11 18
M  V30 18 1 14 19
M  V30 19 2 15 20
M  V30 20 2 19 21
M  V30 21 1 10 13
M  V30 22 1 13 18
M  V30 23 1 20 21
M  V30 END BOND
M  V30 END CTAB
M  END
>  <Molecule Name>
Cinnamic acid, bornyl ester

>  <Activity Label>
0

>  <SMILES>
CC(C)(C(CC1)C2)C1(C)C2OC(C=Cc1ccccc1)=O

>  <Molecular Formula>
C19H24O2

>  <InChIKey>
ACTRLDZRLKIJEH-UHFFFAOYSA-N

>  <Repellency>
Inactive

>  <Reference DOI>
10.3390/toxics11100837

>  <Target Organism>
Not applied

$$$$
Compound 1077
Actelion Java MolfileCreator 2.0

  0  0  0  0  0  0              0 V3000
M  V30 BEGIN CTAB
M  V30 COUNTS 21 23 0 0 0
M  V30 BEGIN ATOM
M  V30 1 O 0.0 0.0 0.0 0
M  V30 2 C 0.0 1.5002 0.0 0
M  V30 3 O -1.2994 2.2445 0.0 0
M  V30 4 C 1.2994 2.2445 0.0 0
M  V30 5 C -2.5989 1.5002 0.0 0
M  V30 6 C 2.5989 1.5002 0.0 0
M  V30 7 C 1.2994 3.7447 0.0 0
M  V30 8 C -3.8983 2.2563 0.0 0
M  V30 9 C -2.5989 0.0 0.0 0
M  V30 10 C 3.8983 2.2563 0.0 0
M  V30 11 C 2.5989 4.5008 0.0 0
M  V30 12 C -3.8983 3.7566 0.0 0
M  V30 13 C -5.1978 1.512 0.0 0
M  V30 14 C -3.8983 -0.7442 0.0 0
M  V30 15 C 3.8983 3.7566 0.0 0
M  V30 16 C -2.5989 4.5008 0.0 0
M  V30 17 C -5.1978 4.5126 0.0 0
M  V30 18 C -5.1978 0.0118 0.0 0
M  V30 19 C -2.5989 6.0011 0.0 0
M  V30 20 C -5.1978 6.0129 0.0 0
M  V30 21 C -3.8983 6.7571 0.0 0
M  V30 END ATOM
M  V30 BEGIN BOND
M  V30 1 2 1 2
M  V30 2 1 2 3
M  V30 3 1 2 4
M  V30 4 1 3 5
M  V30 5 2 4 6
M  V30 6 1 4 7
M  V30 7 1 5 8
M  V30 8 1 5 9
M  V30 9 1 6 10
M  V30 10 2 7 11
M  V30 11 1 8 12
M  V30 12 1 8 13
M  V30 13 1 9 14
M  V30 14 2 10 15
M  V30 15 2 12 16
M  V30 16 1 12 17
M  V30 17 1 13 18
M  V30 18 1 16 19
M  V30 19 2 17 20
M  V30 20 2 19 21
M  V30 21 1 11 15
M  V30 22 1 14 18
M  V30 23 1 20 21
M  V30 END BOND
M  V30 END CTAB
M  END
>  <Molecule Name>
Benzoic acid, 2-phenylcyclohexyl ester

>  <Activity Label>
0

>  <SMILES>
O=C(c1ccccc1)OC(CCCC1)C1c1ccccc1

>  <Molecular Formula>
C19H20O2

>  <InChIKey>
PIVQGKOKGJKFFJ-UHFFFAOYSA-N

>  <Repellency>
Inactive

>  <Reference DOI>
10.3390/toxics11100837

>  <Target Organism>
Not applied

$$$$
Compound 1078
Actelion Java MolfileCreator 2.0

  0  0  0  0  0  0              0 V3000
M  V30 BEGIN CTAB
M  V30 COUNTS 21 23 0 0 0
M  V30 BEGIN ATOM
M  V30 1 O 0.0 0.0 0.0 0
M  V30 2 C -1.3001 0.7446 0.0 0
M  V30 3 C -2.6002 -0.0118 0.0 0
M  V30 4 C -3.9003 0.7327 0.0 0
M  V30 5 C -2.6002 -1.5128 0.0 0
M  V30 6 C -1.3001 -0.7682 0.0 0
M  V30 7 C -5.2004 -0.0118 0.0 0
M  V30 8 C -3.9003 2.2338 0.0 0
M  V30 9 C -3.9003 -2.2692 0.0 0
M  V30 10 C -6.5005 0.7327 0.0 0
M  V30 11 C -5.2004 -1.5128 0.0 0
M  V30 12 C -6.5005 -0.7564 0.0 0
M  V30 13 C -5.2004 2.9784 0.0 0
M  V30 14 C -6.5005 2.2338 0.0 0
M  V30 15 C -7.8006 -0.0118 0.0 0
M  V30 16 C -7.8006 2.9784 0.0 0
M  V30 17 C -9.1007 0.7327 0.0 0
M  V30 18 C -9.1007 2.222 0.0 0
M  V30 19 C -10.4008 2.9666 0.0 0
M  V30 20 C -10.4008 4.4676 0.0 0
M  V30 21 C -11.701 2.2101 0.0 0
M  V30 END ATOM
M  V30 BEGIN BOND
M  V30 1 1 1 2
M  V30 2 1 2 3
M  V30 3 1 3 4
M  V30 4 1 3 5
M  V30 5 1 3 6
M  V30 6 1 4 7
M  V30 7 1 4 8
M  V30 8 1 5 9
M  V30 9 1 7 10
M  V30 10 1 7 11
M  V30 11 1 7 12
M  V30 12 1 8 13
M  V30 13 1 10 14
M  V30 14 1 10 15
M  V30 15 2 14 16
M  V30 16 1 15 17
M  V30 17 1 16 18
M  V30 18 1 18 19
M  V30 19 1 19 20
M  V30 20 1 19 21
M  V30 21 1 9 11
M  V30 22 1 13 14
M  V30 23 1 17 18
M  V30 END BOND
M  V30 END CTAB
M  END
>  <Molecule Name>
Hydroabietyl alcohol

>  <Activity Label>
0

>  <SMILES>
CC(C)C(CC1)C=C(CC2)C1C1(C)C2C(C)(CO)CCC1

>  <Molecular Formula>
C20H34O

>  <InChIKey>
FLMIYUXOBAUKJM-UHFFFAOYSA-N

>  <Repellency>
Inactive

>  <Reference DOI>
10.3390/toxics11100837

>  <Target Organism>
Not applied

$$$$
Compound 1079
Actelion Java MolfileCreator 2.0

  0  0  0  0  0  0              0 V3000
M  V30 BEGIN CTAB
M  V30 COUNTS 22 24 0 0 0
M  V30 BEGIN ATOM
M  V30 1 O 0.0 0.0 0.0 0
M  V30 2 C 0.0 1.5013 0.0 0
M  V30 3 O -1.3004 2.2461 0.0 0
M  V30 4 C 1.3004 2.2461 0.0 0
M  V30 5 C -2.6008 1.5013 0.0 0
M  V30 6 C 1.3004 3.7475 0.0 0
M  V30 7 C 2.6008 1.5013 0.0 0
M  V30 8 C -3.9012 2.2579 0.0 0
M  V30 9 C -2.6008 0.0 0.0 0
M  V30 10 O 0.0 4.4922 0.0 0
M  V30 11 C 2.6008 4.4922 0.0 0
M  V30 12 C 3.9012 2.2461 0.0 0
M  V30 13 C -5.2016 1.5131 0.0 0
M  V30 14 C -3.9012 -0.7447 0.0 0
M  V30 15 C 0.0 5.9936 0.0 0
M  V30 16 C 3.9012 3.7475 0.0 0
M  V30 17 C -5.2016 0.0118 0.0 0
M  V30 18 C 1.3004 6.7384 0.0 0
M  V30 19 C -1.3004 6.7384 0.0 0
M  V30 20 C 1.3004 8.2398 0.0 0
M  V30 21 C -1.3004 8.2398 0.0 0
M  V30 22 C 0.0 8.9845 0.0 0
M  V30 END ATOM
M  V30 BEGIN BOND
M  V30 1 2 1 2
M  V30 2 1 2 3
M  V30 3 1 2 4
M  V30 4 1 3 5
M  V30 5 2 4 6
M  V30 6 1 4 7
M  V30 7 1 5 8
M  V30 8 1 5 9
M  V30 9 1 6 10
M  V30 10 1 6 11
M  V30 11 2 7 12
M  V30 12 1 8 13
M  V30 13 1 9 14
M  V30 14 1 10 15
M  V30 15 2 11 16
M  V30 16 1 13 17
M  V30 17 1 15 18
M  V30 18 1 15 19
M  V30 19 1 18 20
M  V30 20 1 19 21
M  V30 21 1 20 22
M  V30 22 1 12 16
M  V30 23 1 14 17
M  V30 24 1 21 22
M  V30 END BOND
M  V30 END CTAB
M  END
>  <Molecule Name>
o-Cyclohexoxybenzoic acid, cyclohexyl ester

>  <Activity Label>
0

>  <SMILES>
O=C(c(cccc1)c1OC1CCCCC1)OC1CCCCC1

>  <Molecular Formula>
C19H26O3

>  <InChIKey>
WDWVZESKWJFBEA-UHFFFAOYSA-N

>  <Repellency>
Inactive

>  <Reference DOI>
10.3390/toxics11100837

>  <Target Organism>
Not applied

$$$$
Compound 1080
Actelion Java MolfileCreator 2.0

  0  0  0  0  0  0              0 V3000
M  V30 BEGIN CTAB
M  V30 COUNTS 22 24 0 0 0
M  V30 BEGIN ATOM
M  V30 1 O 0.0 0.0 0.0 0
M  V30 2 C -1.1107 1.0043 0.0 0
M  V30 3 N -0.9571 2.4932 0.0 0
M  V30 4 C -2.5759 0.6971 0.0 0
M  V30 5 C -2.3277 3.1076 0.0 0
M  V30 6 C 0.3426 3.2376 0.0 0
M  V30 7 C -3.3203 1.9969 0.0 0
M  V30 8 C -3.3321 -0.6026 0.0 0
M  V30 9 O -2.635 4.5728 0.0 0
M  V30 10 C 1.6424 2.4813 0.0 0
M  V30 11 C -4.821 1.9969 0.0 0
M  V30 12 C -4.8328 -0.6026 0.0 0
M  V30 13 C 2.9422 3.2258 0.0 0
M  V30 14 C -5.5772 0.6971 0.0 0
M  V30 15 O 4.242 2.4695 0.0 0
M  V30 16 C 5.5417 3.214 0.0 0
M  V30 17 C 6.8415 2.4577 0.0 0
M  V30 18 C 6.8415 0.9571 0.0 0
M  V30 19 C 8.1413 3.2021 0.0 0
M  V30 20 C 8.1413 0.2008 0.0 0
M  V30 21 C 9.4411 2.4577 0.0 0
M  V30 22 C 9.4411 0.9452 0.0 0
M  V30 END ATOM
M  V30 BEGIN BOND
M  V30 1 2 1 2
M  V30 2 1 2 3
M  V30 3 1 2 4
M  V30 4 1 3 5
M  V30 5 1 3 6
M  V30 6 2 4 7
M  V30 7 1 4 8
M  V30 8 2 5 9
M  V30 9 1 6 10
M  V30 10 1 7 11
M  V30 11 2 8 12
M  V30 12 1 10 13
M  V30 13 2 11 14
M  V30 14 1 13 15
M  V30 15 1 15 16
M  V30 16 1 16 17
M  V30 17 2 17 18
M  V30 18 1 17 19
M  V30 19 1 18 20
M  V30 20 2 19 21
M  V30 21 2 20 22
M  V30 22 1 5 7
M  V30 23 1 12 14
M  V30 24 1 21 22
M  V30 END BOND
M  V30 END CTAB
M  END
>  <Molecule Name>
N-Benzyloxypropylphthalimide

>  <Activity Label>
0

>  <SMILES>
O=C(c1c2cccc1)N(CCCOCc1ccccc1)C2=O

>  <Molecular Formula>
C18H17NO3

>  <InChIKey>
KYHMSXFXYHTHAT-UHFFFAOYSA-N

>  <Repellency>
Inactive

>  <Reference DOI>
10.3390/toxics11100837

>  <Target Organism>
Not applied

$$$$
Compound 1081
Actelion Java MolfileCreator 2.0

  0  0  0  0  0  0              0 V3000
M  V30 BEGIN CTAB
M  V30 COUNTS 22 22 0 0 0
M  V30 BEGIN ATOM
M  V30 1 O 0.0 0.0 0.0 0
M  V30 2 C 0.0 1.5009 0.0 0
M  V30 3 O 1.3 2.2455 0.0 0
M  V30 4 C -1.3 2.2455 0.0 0
M  V30 5 C 2.6 1.5009 0.0 0
M  V30 6 C -1.3 3.7464 0.0 0
M  V30 7 C -2.6 1.5009 0.0 0 CFG=1
M  V30 8 C 3.9001 2.2455 0.0 0
M  V30 9 O 0.0 4.491 0.0 0
M  V30 10 O -2.6 4.5028 0.0 0
M  V30 11 C -2.6 0.0 0.0 0
M  V30 12 C -3.9001 2.2455 0.0 0
M  V30 13 C -2.6 6.0038 0.0 0
M  V30 14 C -3.9001 -0.7445 0.0 0
M  V30 15 C -1.3 -0.7563 0.0 0
M  V30 16 C -5.2001 1.5009 0.0 0
M  V30 17 C -3.9001 6.7602 0.0 0
M  V30 18 C -3.9001 -2.2455 0.0 0
M  V30 19 C -1.3 -2.2573 0.0 0
M  V30 20 C -6.5002 2.2455 0.0 0
M  V30 21 C -2.6 -3.0019 0.0 0
M  V30 22 C -7.8002 1.5009 0.0 0
M  V30 END ATOM
M  V30 BEGIN BOND
M  V30 1 2 1 2
M  V30 2 1 2 3
M  V30 3 1 2 4
M  V30 4 1 3 5
M  V30 5 1 4 6
M  V30 6 1 4 7
M  V30 7 1 5 8
M  V30 8 2 6 9
M  V30 9 1 6 10
M  V30 10 1 7 11
M  V30 11 1 7 12 CFG=1
M  V30 12 1 10 13
M  V30 13 2 11 14
M  V30 14 1 11 15
M  V30 15 1 12 16
M  V30 16 1 13 17
M  V30 17 1 14 18
M  V30 18 2 15 19
M  V30 19 1 16 20
M  V30 20 2 18 21
M  V30 21 1 20 22
M  V30 22 1 19 21
M  V30 END BOND
M  V30 BEGIN COLLECTION
M  V30 MDLV30/STERAC1 ATOMS=(1 7)
M  V30 END COLLECTION
M  V30 END CTAB
M  END
>  <Molecule Name>
alpha-Carboethoxy-beta-phenyl-heptanoic acid, ethyl ester

>  <Activity Label>
0

>  <SMILES>
CCCCC(C(C(OCC)=O)C(OCC)=O)c1ccccc1

>  <Molecular Formula>
C18H26O4

>  <InChIKey>
KVRXSCFFVPWRKR-UHFFFAOYSA-N

>  <Repellency>
Inactive

>  <Reference DOI>
10.3390/toxics11100837

>  <Target Organism>
Not applied

$$$$
Compound 1082
Actelion Java MolfileCreator 2.0

  0  0  0  0  0  0              0 V3000
M  V30 BEGIN CTAB
M  V30 COUNTS 22 22 0 0 0
M  V30 BEGIN ATOM
M  V30 1 O 0.0 0.0 0.0 0
M  V30 2 C 0.0 -1.4993 0.0 0
M  V30 3 O -1.2986 -2.2549 0.0 0
M  V30 4 C 1.2986 -2.2549 0.0 0
M  V30 5 C -2.5972 -1.5111 0.0 0
M  V30 6 C 2.5972 -1.4993 0.0 0
M  V30 7 C 1.2986 -3.7542 0.0 0
M  V30 8 C -3.8959 -2.2667 0.0 0
M  V30 9 C 2.5972 0.0 0.0 0
M  V30 10 C 3.8959 -2.2431 0.0 0
M  V30 11 C 2.5972 -4.5098 0.0 0
M  V30 12 C -5.1945 -1.5229 0.0 0
M  V30 13 O 3.8959 0.7555 0.0 0
M  V30 14 O 1.2986 0.7437 0.0 0
M  V30 15 C 3.8959 -3.7424 0.0 0
M  V30 16 C -6.4932 -2.2785 0.0 0
M  V30 17 C 1.2986 2.2431 0.0 0
M  V30 18 C -7.7918 -1.5347 0.0 0
M  V30 19 C 0.0 2.9868 0.0 0
M  V30 20 C -9.0905 -2.2903 0.0 0
M  V30 21 C 0.0 4.4862 0.0 0
M  V30 22 C -1.2986 5.2299 0.0 0
M  V30 END ATOM
M  V30 BEGIN BOND
M  V30 1 2 1 2
M  V30 2 1 2 3
M  V30 3 1 2 4
M  V30 4 1 3 5
M  V30 5 2 4 6
M  V30 6 1 4 7
M  V30 7 1 5 8
M  V30 8 1 6 9
M  V30 9 1 6 10
M  V30 10 2 7 11
M  V30 11 1 8 12
M  V30 12 2 9 13
M  V30 13 1 9 14
M  V30 14 2 10 15
M  V30 15 1 12 16
M  V30 16 1 14 17
M  V30 17 1 16 18
M  V30 18 1 17 19
M  V30 19 1 18 20
M  V30 20 1 19 21
M  V30 21 1 21 22
M  V30 22 1 11 15
M  V30 END BOND
M  V30 END CTAB
M  END
>  <Molecule Name>
Phthalic acid, butyl hexyl ester

>  <Activity Label>
0

>  <SMILES>
CCCCCCOC(c(cccc1)c1C(OCCCC)=O)=O

>  <Molecular Formula>
C18H26O4

>  <InChIKey>
LKVQWLUFJXBHKH-UHFFFAOYSA-N

>  <Repellency>
Inactive

>  <Reference DOI>
10.3390/toxics11100837

>  <Target Organism>
Not applied

$$$$
Compound 1083
Actelion Java MolfileCreator 2.0

  0  0  0  0  0  0              0 V3000
M  V30 BEGIN CTAB
M  V30 COUNTS 22 22 0 0 0
M  V30 BEGIN ATOM
M  V30 1 O 0.0 0.0 0.0 0
M  V30 2 C -1.3006 0.7567 0.0 0
M  V30 3 O -2.6012 0.0118 0.0 0
M  V30 4 C -1.3006 2.2583 0.0 0
M  V30 5 C -2.6012 -1.4898 0.0 0
M  V30 6 C -2.6012 3.0032 0.0 0
M  V30 7 C 0.0 3.0032 0.0 0
M  V30 8 C -3.9018 -2.2347 0.0 0
M  V30 9 C -3.9018 2.2583 0.0 0
M  V30 10 C -2.6012 4.5049 0.0 0
M  V30 11 C 0.0 4.5049 0.0 0
M  V30 12 C -3.9018 -3.7363 0.0 0
M  V30 13 O -3.9018 0.7567 0.0 0
M  V30 14 O -5.2025 3.0032 0.0 0
M  V30 15 C -1.3006 5.2498 0.0 0
M  V30 16 C -5.2025 -4.4812 0.0 0
M  V30 17 C -6.5031 2.2583 0.0 0
M  V30 18 C -5.2025 -5.9829 0.0 0
M  V30 19 C -7.8037 3.0032 0.0 0
M  V30 20 C -9.1044 2.2583 0.0 0
M  V30 21 C -10.405 3.0032 0.0 0
M  V30 22 C -11.7056 2.2583 0.0 0
M  V30 END ATOM
M  V30 BEGIN BOND
M  V30 1 2 1 2
M  V30 2 1 2 3
M  V30 3 1 2 4
M  V30 4 1 3 5
M  V30 5 2 4 6
M  V30 6 1 4 7
M  V30 7 1 5 8
M  V30 8 1 6 9
M  V30 9 1 6 10
M  V30 10 2 7 11
M  V30 11 1 8 12
M  V30 12 2 9 13
M  V30 13 1 9 14
M  V30 14 2 10 15
M  V30 15 1 12 16
M  V30 16 1 14 17
M  V30 17 1 16 18
M  V30 18 1 17 19
M  V30 19 1 19 20
M  V30 20 1 20 21
M  V30 21 1 21 22
M  V30 22 1 11 15
M  V30 END BOND
M  V30 END CTAB
M  END
>  <Molecule Name>
Phthalic acid, diamyl ester

>  <Activity Label>
0

>  <SMILES>
CCCCCOC(c(cccc1)c1C(OCCCCC)=O)=O

>  <Molecular Formula>
C18H26O4

>  <InChIKey>
IPKKHRVROFYTEK-UHFFFAOYSA-N

>  <Repellency>
Inactive

>  <Reference DOI>
10.3390/toxics11100837

>  <Target Organism>
Not applied

$$$$
Compound 1084
Actelion Java MolfileCreator 2.0

  0  0  0  0  0  0              0 V3000
M  V30 BEGIN CTAB
M  V30 COUNTS 22 22 0 0 0
M  V30 BEGIN ATOM
M  V30 1 O 0.0 0.0 0.0 0
M  V30 2 C 1.2987 -0.7556 0.0 0
M  V30 3 O 1.2987 -2.2551 0.0 0
M  V30 4 C 2.5975 -0.0118 0.0 0
M  V30 5 C 0.0 -2.9989 0.0 0
M  V30 6 C 2.5975 1.4876 0.0 0
M  V30 7 C 3.8963 -0.7674 0.0 0
M  V30 8 C 0.0 -4.4984 0.0 0
M  V30 9 C 1.2987 2.2315 0.0 0
M  V30 10 C 3.8963 2.2315 0.0 0
M  V30 11 C 5.195 -0.0236 0.0 0
M  V30 12 C -1.2987 -5.2541 0.0 0
M  V30 13 O 1.2987 3.731 0.0 0
M  V30 14 O 0.0 1.4758 0.0 0
M  V30 15 C 5.195 1.4876 0.0 0
M  V30 16 C -2.5975 -4.4984 0.0 0
M  V30 17 C -1.2987 -6.7536 0.0 0
M  V30 18 C -1.2987 2.2197 0.0 0
M  V30 19 C -2.5975 1.464 0.0 0
M  V30 20 C -3.8963 2.2079 0.0 0
M  V30 21 C -3.8963 3.7073 0.0 0
M  V30 22 C -5.195 1.4522 0.0 0
M  V30 END ATOM
M  V30 BEGIN BOND
M  V30 1 2 1 2
M  V30 2 1 2 3
M  V30 3 1 2 4
M  V30 4 1 3 5
M  V30 5 2 4 6
M  V30 6 1 4 7
M  V30 7 1 5 8
M  V30 8 1 6 9
M  V30 9 1 6 10
M  V30 10 2 7 11
M  V30 11 1 8 12
M  V30 12 2 9 13
M  V30 13 1 9 14
M  V30 14 2 10 15
M  V30 15 1 12 16
M  V30 16 1 12 17
M  V30 17 1 14 18
M  V30 18 1 18 19
M  V30 19 1 19 20
M  V30 20 1 20 21
M  V30 21 1 20 22
M  V30 22 1 11 15
M  V30 END BOND
M  V30 END CTAB
M  END
>  <Molecule Name>
Phthalic acid, di-iso-amyl ester

>  <Activity Label>
0

>  <SMILES>
CC(C)CCOC(c(cccc1)c1C(OCCC(C)C)=O)=O

>  <Molecular Formula>
C18H26O4

>  <InChIKey>
JANBFCARANRIKJ-UHFFFAOYSA-N

>  <Repellency>
Inactive

>  <Reference DOI>
10.3390/toxics11100837

>  <Target Organism>
Not applied

$$$$
Compound 1085
Actelion Java MolfileCreator 2.0

  0  0  0  0  0  0              0 V3000
M  V30 BEGIN CTAB
M  V30 COUNTS 22 22 0 0 0
M  V30 BEGIN ATOM
M  V30 1 O 0.0 0.0 0.0 0
M  V30 2 C 0.0 1.5023 0.0 0
M  V30 3 O 1.3012 2.2475 0.0 0
M  V30 4 C -1.3012 2.2475 0.0 0
M  V30 5 C 2.6024 1.5023 0.0 0
M  V30 6 C -2.6024 1.5023 0.0 0
M  V30 7 C 3.9036 2.2475 0.0 0
M  V30 8 C -3.9036 2.2475 0.0 0
M  V30 9 C -5.2048 1.5023 0.0 0
M  V30 10 C -6.506 2.2475 0.0 0
M  V30 11 C -7.8072 1.5023 0.0 0
M  V30 12 C -9.1085 2.2475 0.0 0
M  V30 13 C -10.4097 1.5023 0.0 0
M  V30 14 C -11.7109 2.2475 0.0 0
M  V30 15 C -13.0121 1.5023 0.0 0
M  V30 16 C -14.3133 2.2475 0.0 0
M  V30 17 C -15.6145 1.5023 0.0 0
M  V30 18 C -16.9157 2.2475 0.0 0 CFG=2
M  V30 19 C -18.2879 1.6324 0.0 0
M  V30 20 C -17.0695 3.738 0.0 0
M  V30 21 C -19.2934 2.7443 0.0 0
M  V30 22 C -18.5364 4.0455 0.0 0
M  V30 END ATOM
M  V30 BEGIN BOND
M  V30 1 2 1 2
M  V30 2 1 2 3
M  V30 3 1 2 4
M  V30 4 1 3 5
M  V30 5 1 4 6
M  V30 6 1 5 7
M  V30 7 1 6 8
M  V30 8 1 8 9
M  V30 9 1 9 10
M  V30 10 1 10 11
M  V30 11 1 11 12
M  V30 12 1 12 13
M  V30 13 1 13 14
M  V30 14 1 14 15
M  V30 15 1 15 16
M  V30 16 1 16 17
M  V30 17 1 18 17 CFG=3
M  V30 18 1 18 19
M  V30 19 1 18 20
M  V30 20 2 19 21
M  V30 21 1 20 22
M  V30 22 1 21 22
M  V30 END BOND
M  V30 BEGIN COLLECTION
M  V30 MDLV30/STERAC1 ATOMS=(1 18)
M  V30 END COLLECTION
M  V30 END CTAB
M  END
>  <Molecule Name>
Chaulmoogric acid, ethyl ester

>  <Activity Label>
0

>  <SMILES>
CCOC(CCCCCCCCCCCCC1C=CCC1)=O

>  <Molecular Formula>
C20H36O2

>  <InChIKey>
FDGHZUQYDACRTA-UHFFFAOYSA-N

>  <Repellency>
Inactive

>  <Reference DOI>
10.3390/toxics11100837

>  <Target Organism>
Not applied

$$$$
Compound 1086
Actelion Java MolfileCreator 2.0

  0  0  0  0  0  0              0 V3000
M  V30 BEGIN CTAB
M  V30 COUNTS 22 22 0 0 0
M  V30 BEGIN ATOM
M  V30 1 O 0.0 0.0 0.0 0
M  V30 2 C 0.0 1.5018 0.0 0
M  V30 3 O -1.3008 2.2469 0.0 0
M  V30 4 C 1.3008 2.2469 0.0 0
M  V30 5 C -2.6016 1.5018 0.0 0
M  V30 6 C 2.6016 1.5018 0.0 0
M  V30 7 C -3.9025 2.2587 0.0 0
M  V30 8 C -2.6016 0.0 0.0 0
M  V30 9 C 3.9025 2.2469 0.0 0
M  V30 10 C -5.2033 1.5137 0.0 0
M  V30 11 C -3.9025 -0.745 0.0 0
M  V30 12 C 5.2033 1.5018 0.0 0
M  V30 13 C -5.2033 0.0118 0.0 0
M  V30 14 C 6.5041 2.2469 0.0 0
M  V30 15 C 7.805 1.5018 0.0 0
M  V30 16 C 9.1058 2.2469 0.0 0
M  V30 17 C 10.4067 1.5018 0.0 0
M  V30 18 C 11.7075 2.2469 0.0 0
M  V30 19 C 13.0083 1.5018 0.0 0
M  V30 20 C 14.3092 2.2469 0.0 0
M  V30 21 C 15.61 1.5018 0.0 0
M  V30 22 C 16.9109 2.2469 0.0 0
M  V30 END ATOM
M  V30 BEGIN BOND
M  V30 1 2 1 2
M  V30 2 1 2 3
M  V30 3 1 2 4
M  V30 4 1 3 5
M  V30 5 1 4 6
M  V30 6 1 5 7
M  V30 7 1 5 8
M  V30 8 1 6 9
M  V30 9 1 7 10
M  V30 10 1 8 11
M  V30 11 1 9 12
M  V30 12 1 10 13
M  V30 13 1 12 14
M  V30 14 1 14 15
M  V30 15 1 15 16
M  V30 16 1 16 17
M  V30 17 1 17 18
M  V30 18 1 18 19
M  V30 19 1 19 20
M  V30 20 1 20 21
M  V30 21 1 21 22
M  V30 22 1 11 13
M  V30 END BOND
M  V30 END CTAB
M  END
>  <Molecule Name>
Myristic acid, cyclohexyl ester

>  <Activity Label>
0

>  <SMILES>
CCCCCCCCCCCCCC(OC1CCCCC1)=O

>  <Molecular Formula>
C20H38O2

>  <InChIKey>
CVKSQUBKUSUUSC-UHFFFAOYSA-N

>  <Repellency>
Inactive

>  <Reference DOI>
10.3390/toxics11100837

>  <Target Organism>
Not applied

$$$$
Compound 1087
Actelion Java MolfileCreator 2.0

  0  0  0  0  0  0              0 V3000
M  V30 BEGIN CTAB
M  V30 COUNTS 22 22 0 0 0
M  V30 BEGIN ATOM
M  V30 1 Cl 0.0 0.0 0.0 0
M  V30 2 C -1.3013 0.7452 0.0 0
M  V30 3 C -1.3013 2.2477 0.0 0
M  V30 4 C -2.6026 0.0 0.0 0
M  V30 5 C -2.6026 2.993 0.0 0
M  V30 6 C -3.9039 0.7452 0.0 0
M  V30 7 C -3.9039 2.2477 0.0 0
M  V30 8 C -5.2052 2.993 0.0 0
M  V30 9 O -5.2052 4.4954 0.0 0
M  V30 10 O -6.5065 2.2477 0.0 0
M  V30 11 C -7.8078 2.993 0.0 0
M  V30 12 C -9.1091 2.2477 0.0 0
M  V30 13 C -10.4104 2.993 0.0 0
M  V30 14 C -11.7117 2.2477 0.0 0
M  V30 15 C -13.013 2.993 0.0 0
M  V30 16 C -14.3143 2.2477 0.0 0
M  V30 17 C -15.6156 2.993 0.0 0
M  V30 18 C -16.9169 2.2477 0.0 0
M  V30 19 C -18.2182 2.993 0.0 0
M  V30 20 C -19.5195 2.2477 0.0 0
M  V30 21 C -20.8208 2.993 0.0 0
M  V30 22 C -22.1221 2.2477 0.0 0
M  V30 END ATOM
M  V30 BEGIN BOND
M  V30 1 1 1 2
M  V30 2 2 2 3
M  V30 3 1 2 4
M  V30 4 1 3 5
M  V30 5 2 4 6
M  V30 6 2 5 7
M  V30 7 1 7 8
M  V30 8 2 8 9
M  V30 9 1 8 10
M  V30 10 1 10 11
M  V30 11 1 11 12
M  V30 12 1 12 13
M  V30 13 1 13 14
M  V30 14 1 14 15
M  V30 15 1 15 16
M  V30 16 1 16 17
M  V30 17 1 17 18
M  V30 18 1 18 19
M  V30 19 1 19 20
M  V30 20 1 20 21
M  V30 21 1 21 22
M  V30 22 1 6 7
M  V30 END BOND
M  V30 END CTAB
M  END
>  <Molecule Name>
4-Chlorobenzoic acid, lauryl ester

>  <Activity Label>
0

>  <SMILES>
CCCCCCCCCCCCOC(c(cc1)ccc1Cl)=O

>  <Molecular Formula>
C19H29O2Cl

>  <InChIKey>
AEOLFEGHEDCXAW-UHFFFAOYSA-N

>  <Repellency>
Inactive

>  <Reference DOI>
10.3390/toxics11100837

>  <Target Organism>
Not applied

$$$$
Compound 1088
Actelion Java MolfileCreator 2.0

  0  0  0  0  0  0              0 V3000
M  V30 BEGIN CTAB
M  V30 COUNTS 22 22 0 0 0
M  V30 BEGIN ATOM
M  V30 1 O 0.0 0.0 0.0 0
M  V30 2 C 0.0 -1.4994 0.0 0
M  V30 3 O -1.2987 -2.2551 0.0 0
M  V30 4 C 1.2987 -2.2551 0.0 0
M  V30 5 C -2.5975 -1.5112 0.0 0
M  V30 6 C 2.5975 -1.5112 0.0 0
M  V30 7 C 1.2987 -3.7546 0.0 0
M  V30 8 C -3.8963 -2.2669 0.0 0
M  V30 9 O 2.5975 -0.0118 0.0 0
M  V30 10 O 3.8963 -2.2669 0.0 0
M  V30 11 C 2.5975 -4.4984 0.0 0
M  V30 12 C 5.195 -1.5231 0.0 0
M  V30 13 C 2.5975 -5.9979 0.0 0
M  V30 14 C 3.8963 -3.7546 0.0 0
M  V30 15 C 6.4938 -2.2787 0.0 0
M  V30 16 O 1.2987 -6.7417 0.0 0
M  V30 17 C 3.8963 -6.7536 0.0 0
M  V30 18 C 5.195 -4.4984 0.0 0
M  V30 19 C 1.2987 -8.2412 0.0 0
M  V30 20 O 3.8963 -8.253 0.0 0
M  V30 21 C 5.195 -6.0097 0.0 0
M  V30 22 C 5.195 -9.0087 0.0 0
M  V30 END ATOM
M  V30 BEGIN BOND
M  V30 1 2 1 2
M  V30 2 1 2 3
M  V30 3 1 2 4
M  V30 4 1 3 5
M  V30 5 1 4 6
M  V30 6 2 4 7
M  V30 7 1 5 8
M  V30 8 2 6 9
M  V30 9 1 6 10
M  V30 10 1 7 11
M  V30 11 1 10 12
M  V30 12 2 11 13
M  V30 13 1 11 14
M  V30 14 1 12 15
M  V30 15 1 13 16
M  V30 16 1 13 17
M  V30 17 2 14 18
M  V30 18 1 16 19
M  V30 19 1 17 20
M  V30 20 2 17 21
M  V30 21 1 20 22
M  V30 22 1 18 21
M  V30 END BOND
M  V30 END CTAB
M  END
>  <Molecule Name>
2,3-Dimethoxybenzal malonic acid diethyl ester

>  <Activity Label>
0

>  <SMILES>
CCOC(C(C(OCC)=O)=Cc(cccc1OC)c1OC)=O

>  <Molecular Formula>
C16H20O6

>  <InChIKey>
VCHSRJSLOQLZKE-UHFFFAOYSA-N

>  <Repellency>
Inactive

>  <Reference DOI>
10.3390/toxics11100837

>  <Target Organism>
Not applied

$$$$
Compound 1089
Actelion Java MolfileCreator 2.0

  0  0  0  0  0  0              0 V3000
M  V30 BEGIN CTAB
M  V30 COUNTS 22 22 0 0 0
M  V30 BEGIN ATOM
M  V30 1 O 0.0 0.0 0.0 0
M  V30 2 C 0.0 -1.5014 0.0 0
M  V30 3 O 1.3004 -2.2463 0.0 0
M  V30 4 C -1.3004 -2.2463 0.0 0
M  V30 5 C 2.6009 -1.5014 0.0 0
M  V30 6 O -2.6009 -1.5014 0.0 0
M  V30 7 C 3.9014 -2.2463 0.0 0
M  V30 8 C -3.9014 -2.2463 0.0 0
M  V30 9 C 5.2019 -1.5014 0.0 0
M  V30 10 C -3.9014 -3.7477 0.0 0
M  V30 11 C -5.2019 -1.4896 0.0 0
M  V30 12 C -5.2019 -4.4926 0.0 0
M  V30 13 C -6.5024 -2.2344 0.0 0
M  V30 14 C -6.5024 -3.7477 0.0 0
M  V30 15 O -7.8029 -4.4926 0.0 0
M  V30 16 C -9.1034 -3.7477 0.0 0
M  V30 17 C -10.4039 -4.4926 0.0 0
M  V30 18 O -10.4039 -5.9941 0.0 0
M  V30 19 O -11.7044 -3.7477 0.0 0
M  V30 20 C -13.0049 -4.4926 0.0 0
M  V30 21 C -14.3054 -3.7477 0.0 0
M  V30 22 C -15.6059 -4.4926 0.0 0
M  V30 END ATOM
M  V30 BEGIN BOND
M  V30 1 2 1 2
M  V30 2 1 2 3
M  V30 3 1 2 4
M  V30 4 1 3 5
M  V30 5 1 4 6
M  V30 6 1 5 7
M  V30 7 1 6 8
M  V30 8 2 7 9
M  V30 9 2 8 10
M  V30 10 1 8 11
M  V30 11 1 10 12
M  V30 12 2 11 13
M  V30 13 2 12 14
M  V30 14 1 14 15
M  V30 15 1 15 16
M  V30 16 1 16 17
M  V30 17 2 17 18
M  V30 18 1 17 19
M  V30 19 1 19 20
M  V30 20 1 20 21
M  V30 21 2 21 22
M  V30 22 1 13 14
M  V30 END BOND
M  V30 END CTAB
M  END
>  <Molecule Name>
Diallyl p-phenylenedioxydiacetate

>  <Activity Label>
0

>  <SMILES>
C=CCOC(COc(cc1)ccc1OCC(OCC=C)=O)=O

>  <Molecular Formula>
C16H18O6

>  <InChIKey>
FLNAUMQLSZOFOS-UHFFFAOYSA-N

>  <Repellency>
Inactive

>  <Reference DOI>
10.3390/toxics11100837

>  <Target Organism>
Not applied

$$$$
Compound 1090
Actelion Java MolfileCreator 2.0

  0  0  0  0  0  0              0 V3000
M  V30 BEGIN CTAB
M  V30 COUNTS 22 22 0 0 0
M  V30 BEGIN ATOM
M  V30 1 O 0.0 0.0 0.0 0
M  V30 2 C -1.3008 0.745 0.0 0
M  V30 3 O -2.6017 0.0 0.0 0
M  V30 4 C -1.3008 2.2469 0.0 0
M  V30 5 C -2.6017 -1.5019 0.0 0
M  V30 6 O 0.0 2.9919 0.0 0
M  V30 7 C -3.9025 -2.2469 0.0 0
M  V30 8 C 0.0 4.4938 0.0 0
M  V30 9 C -3.9025 -3.7488 0.0 0
M  V30 10 C -1.3008 5.2389 0.0 0
M  V30 11 C 1.3008 5.2389 0.0 0
M  V30 12 O -2.6017 4.4938 0.0 0
M  V30 13 C -1.3008 6.7408 0.0 0
M  V30 14 C 1.3008 6.7408 0.0 0
M  V30 15 C -3.9025 5.2389 0.0 0
M  V30 16 C 0.0 7.4858 0.0 0
M  V30 17 C -5.2034 4.4938 0.0 0
M  V30 18 O -5.2034 2.9919 0.0 0
M  V30 19 O -6.5043 5.2389 0.0 0
M  V30 20 C -7.8051 4.4938 0.0 0
M  V30 21 C -9.106 5.2389 0.0 0
M  V30 22 C -10.4069 4.4938 0.0 0
M  V30 END ATOM
M  V30 BEGIN BOND
M  V30 1 2 1 2
M  V30 2 1 2 3
M  V30 3 1 2 4
M  V30 4 1 3 5
M  V30 5 1 4 6
M  V30 6 1 5 7
M  V30 7 1 6 8
M  V30 8 1 7 9
M  V30 9 2 8 10
M  V30 10 1 8 11
M  V30 11 1 10 12
M  V30 12 1 10 13
M  V30 13 2 11 14
M  V30 14 1 12 15
M  V30 15 2 13 16
M  V30 16 1 15 17
M  V30 17 2 17 18
M  V30 18 1 17 19
M  V30 19 1 19 20
M  V30 20 1 20 21
M  V30 21 1 21 22
M  V30 22 1 14 16
M  V30 END BOND
M  V30 END CTAB
M  END
>  <Molecule Name>
o-Phenylenedioxydiacetic acid, di-n-propyl ester

>  <Activity Label>
0

>  <SMILES>
CCCOC(COc(cccc1)c1OCC(OCCC)=O)=O

>  <Molecular Formula>
C16H22O6

>  <InChIKey>
CJGSDEJYNUWZED-UHFFFAOYSA-N

>  <Repellency>
Inactive

>  <Reference DOI>
10.3390/toxics11100837

>  <Target Organism>
Not applied

$$$$
Compound 1091
Actelion Java MolfileCreator 2.0

  0  0  0  0  0  0              0 V3000
M  V30 BEGIN CTAB
M  V30 COUNTS 22 22 0 0 0
M  V30 BEGIN ATOM
M  V30 1 O 0.0 0.0 0.0 0
M  V30 2 C -0.886 1.2168 0.0 0
M  V30 3 O -0.2717 2.5872 0.0 0
M  V30 4 N -2.3746 1.0632 0.0 0
M  V30 5 C -1.1577 3.804 0.0 0
M  V30 6 C -3.1188 -0.2362 0.0 0
M  V30 7 C -3.3787 2.1737 0.0 0
M  V30 8 C -0.5434 5.1745 0.0 0
M  V30 9 C -2.5045 -1.6066 0.0 0
M  V30 10 C -4.5838 0.0708 0.0 0
M  V30 11 C -4.7492 1.5594 0.0 0
M  V30 12 C -3.0716 3.6387 0.0 0
M  V30 13 O -3.3906 -2.8235 0.0 0
M  V30 14 O -1.016 -1.7602 0.0 0
M  V30 15 C -5.6943 -0.9333 0.0 0
M  V30 16 C -6.0487 2.3037 0.0 0
M  V30 17 C -0.4016 -3.1307 0.0 0
M  V30 18 O -6.0487 3.804 0.0 0
M  V30 19 O -7.3482 1.5476 0.0 0
M  V30 20 C 1.0868 -3.2842 0.0 0
M  V30 21 C -8.6478 2.2919 0.0 0
M  V30 22 C -9.9473 1.5358 0.0 0
M  V30 END ATOM
M  V30 BEGIN BOND
M  V30 1 2 1 2
M  V30 2 1 2 3
M  V30 3 1 2 4
M  V30 4 1 3 5
M  V30 5 1 4 6
M  V30 6 1 4 7
M  V30 7 1 5 8
M  V30 8 1 6 9
M  V30 9 1 6 10
M  V30 10 1 7 11
M  V30 11 1 7 12
M  V30 12 2 9 13
M  V30 13 1 9 14
M  V30 14 1 10 15
M  V30 15 1 11 16
M  V30 16 1 14 17
M  V30 17 2 16 18
M  V30 18 1 16 19
M  V30 19 1 17 20
M  V30 20 1 19 21
M  V30 21 1 21 22
M  V30 22 1 10 11
M  V30 END BOND
M  V30 END CTAB
M  END
>  <Molecule Name>
1,3,5-Tricarbethoxy-2,4-dimethylpyrrolidine

>  <Activity Label>
0

>  <SMILES>
CCOC(C(C(C)C1C(OCC)=O)C(C)N1C(OCC)=O)=O

>  <Molecular Formula>
C15H25NO6

>  <InChIKey>
CORUWIWKNKXWHI-UHFFFAOYSA-N

>  <Repellency>
Inactive

>  <Reference DOI>
10.3390/toxics11100837

>  <Target Organism>
Not applied

$$$$
Compound 1092
Actelion Java MolfileCreator 2.0

  0  0  0  0  0  0              0 V3000
M  V30 BEGIN CTAB
M  V30 COUNTS 22 21 0 0 0
M  V30 BEGIN ATOM
M  V30 1 S 0.0 0.0 0.0 0
M  V30 2 C -1.2967 0.7544 0.0 0
M  V30 3 C 1.2967 0.7544 0.0 0
M  V30 4 S -2.5935 0.0 0.0 0
M  V30 5 C -1.2967 2.2516 0.0 0
M  V30 6 C 2.5935 0.0 0.0 0
M  V30 7 C -3.8903 0.7544 0.0 0
M  V30 8 C 0.0 3.0061 0.0 0
M  V30 9 C 3.8903 0.7544 0.0 0
M  V30 10 C -5.1871 0.0 0.0 0
M  V30 11 C 0.0 4.5033 0.0 0
M  V30 12 C 5.1871 0.0 0.0 0
M  V30 13 C -6.4838 0.7544 0.0 0
M  V30 14 C 6.4838 0.7544 0.0 0
M  V30 15 C -7.7806 0.0 0.0 0
M  V30 16 C 7.7806 0.0 0.0 0
M  V30 17 C -9.0774 0.7544 0.0 0
M  V30 18 C 9.0774 0.7544 0.0 0
M  V30 19 C -10.3742 0.0 0.0 0
M  V30 20 C 10.3742 0.0 0.0 0
M  V30 21 C -11.671 0.7544 0.0 0
M  V30 22 C -12.9677 0.0 0.0 0
M  V30 END ATOM
M  V30 BEGIN BOND
M  V30 1 1 1 2
M  V30 2 1 1 3
M  V30 3 1 2 4
M  V30 4 1 2 5
M  V30 5 1 3 6
M  V30 6 1 4 7
M  V30 7 2 5 8
M  V30 8 1 6 9
M  V30 9 1 7 10
M  V30 10 1 8 11
M  V30 11 1 9 12
M  V30 12 1 10 13
M  V30 13 1 12 14
M  V30 14 1 13 15
M  V30 15 1 14 16
M  V30 16 1 15 17
M  V30 17 1 16 18
M  V30 18 1 17 19
M  V30 19 1 18 20
M  V30 20 1 19 21
M  V30 21 1 21 22
M  V30 END BOND
M  V30 END CTAB
M  END
>  <Molecule Name>
Crotonaldehyde dioctyl mercaptal

>  <Activity Label>
0

>  <SMILES>
CCCCCCCCSC(/C=C/C)SCCCCCCCC

>  <Molecular Formula>
C20H40S2

>  <InChIKey>
CGBYSRKNPSOWSB-UBKPWBPPSA-N

>  <Repellency>
Inactive

>  <Reference DOI>
10.3390/toxics11100837

>  <Target Organism>
Not applied

$$$$
Compound 1093
Actelion Java MolfileCreator 2.0

  0  0  0  0  0  0              0 V3000
M  V30 BEGIN CTAB
M  V30 COUNTS 22 21 0 0 0
M  V30 BEGIN ATOM
M  V30 1 O 0.0 0.0 0.0 0
M  V30 2 C -1.437 1.0631 0.0 0
M  V30 3 O -2.7221 0.3154 0.0 0
M  V30 4 C -1.437 2.5469 0.0 0
M  V30 5 C -4.0073 1.0631 0.0 0
M  V30 6 O -1.437 4.0307 0.0 0
M  V30 7 C -0.1518 1.7992 0.0 0
M  V30 8 C -2.7221 1.7992 0.0 0
M  V30 9 C -5.2925 0.3271 0.0 0
M  V30 10 C 1.1332 2.5352 0.0 0
M  V30 11 C 0.0233 0.5491 0.0 0
M  V30 12 C -4.0073 2.5352 0.0 0
M  V30 13 O 1.1332 4.019 0.0 0
M  V30 14 O 2.4184 1.7992 0.0 0
M  V30 15 O 1.1332 -0.4205 0.0 0
M  V30 16 C -1.437 -0.4205 0.0 0
M  V30 17 O -4.0073 4.019 0.0 0
M  V30 18 O -5.2925 1.7875 0.0 0
M  V30 19 C 3.7035 2.5352 0.0 0
M  V30 20 C -6.5776 2.5235 0.0 0
M  V30 21 C 4.9887 1.7992 0.0 0
M  V30 22 C -7.8628 1.7758 0.0 0
M  V30 END ATOM
M  V30 BEGIN BOND
M  V30 1 2 1 2
M  V30 2 1 2 3
M  V30 3 1 2 4
M  V30 4 1 3 5
M  V30 5 1 4 6
M  V30 6 1 4 7
M  V30 7 1 4 8
M  V30 8 1 5 9
M  V30 9 1 7 10
M  V30 10 1 7 11
M  V30 11 1 8 12
M  V30 12 2 10 13
M  V30 13 1 10 14
M  V30 14 2 11 15
M  V30 15 1 11 16
M  V30 16 2 12 17
M  V30 17 1 12 18
M  V30 18 1 14 19
M  V30 19 1 18 20
M  V30 20 1 19 21
M  V30 21 1 20 22
M  V30 END BOND
M  V30 END CTAB
M  END
>  <Molecule Name>
Acetylcitric acid, triethyl ester

>  <Activity Label>
0

>  <SMILES>
CCOC(CC(C(C(C)=O)C(OCC)=O)(C(OCC)=O)O)=O

>  <Molecular Formula>
C14H22O8

>  <InChIKey>
WBBUYACCVIYKCV-UHFFFAOYSA-N

>  <Repellency>
Inactive

>  <Reference DOI>
10.3390/toxics11100837

>  <Target Organism>
Not applied

$$$$
Compound 1094
Actelion Java MolfileCreator 2.0

  0  0  0  0  0  0              0 V3000
M  V30 BEGIN CTAB
M  V30 COUNTS 22 21 0 0 0
M  V30 BEGIN ATOM
M  V30 1 O 0.0 0.0 0.0 0
M  V30 2 C 0.0 1.5025 0.0 0
M  V30 3 O 1.3014 2.2478 0.0 0
M  V30 4 C -1.3014 2.2478 0.0 0
M  V30 5 C 2.6028 1.5025 0.0 0
M  V30 6 C -2.6028 1.5025 0.0 0
M  V30 7 C 3.9042 2.2478 0.0 0
M  V30 8 C -3.9042 2.2478 0.0 0
M  V30 9 C 5.2056 1.5025 0.0 0
M  V30 10 C -5.2056 1.5025 0.0 0
M  V30 11 C 6.507 2.2478 0.0 0
M  V30 12 C -6.507 2.2478 0.0 0
M  V30 13 C -7.8084 1.5025 0.0 0
M  V30 14 C -9.1098 2.2478 0.0 0
M  V30 15 C -10.4112 1.5025 0.0 0
M  V30 16 C -11.7126 2.2478 0.0 0
M  V30 17 O -11.7126 3.7504 0.0 0
M  V30 18 O -13.014 1.5025 0.0 0
M  V30 19 C -14.3154 2.2478 0.0 0
M  V30 20 C -15.6168 1.5025 0.0 0
M  V30 21 C -16.9182 2.2478 0.0 0
M  V30 22 C -18.2196 1.5025 0.0 0
M  V30 END ATOM
M  V30 BEGIN BOND
M  V30 1 2 1 2
M  V30 2 1 2 3
M  V30 3 1 2 4
M  V30 4 1 3 5
M  V30 5 1 4 6
M  V30 6 1 5 7
M  V30 7 1 6 8
M  V30 8 1 7 9
M  V30 9 1 8 10
M  V30 10 1 9 11
M  V30 11 1 10 12
M  V30 12 1 12 13
M  V30 13 1 13 14
M  V30 14 1 14 15
M  V30 15 1 15 16
M  V30 16 2 16 17
M  V30 17 1 16 18
M  V30 18 1 18 19
M  V30 19 1 19 20
M  V30 20 1 20 21
M  V30 21 1 21 22
M  V30 END BOND
M  V30 END CTAB
M  END
>  <Molecule Name>
Sebacic acid, dibutyl ester

>  <Activity Label>
0

>  <SMILES>
CCCCOC(CCCCCCCCC(OCCCC)=O)=O

>  <Molecular Formula>
C18H34O4

>  <InChIKey>
PYGXAGIECVVIOZ-UHFFFAOYSA-N

>  <Repellency>
Inactive

>  <Reference DOI>
10.3390/toxics11100837

>  <Target Organism>
Not applied

$$$$
Compound 1095
Actelion Java MolfileCreator 2.0

  0  0  0  0  0  0              0 V3000
M  V30 BEGIN CTAB
M  V30 COUNTS 22 21 0 0 0
M  V30 BEGIN ATOM
M  V30 1 O 0.0 0.0 0.0 0
M  V30 2 C 0.0 -1.5022 0.0 0
M  V30 3 O 1.3011 -2.2474 0.0 0
M  V30 4 C -1.3011 -2.2474 0.0 0
M  V30 5 C 2.6023 -1.5022 0.0 0
M  V30 6 C -2.6023 -1.5022 0.0 0
M  V30 7 C 3.9035 -2.2474 0.0 0
M  V30 8 C -3.9035 -2.2474 0.0 0
M  V30 9 C 3.9035 -3.7497 0.0 0
M  V30 10 C 5.2046 -1.5022 0.0 0
M  V30 11 C -5.2046 -1.5022 0.0 0
M  V30 12 C -6.5058 -2.2474 0.0 0
M  V30 13 C -7.807 -1.5022 0.0 0
M  V30 14 C -9.1082 -2.2474 0.0 0
M  V30 15 C -10.4093 -1.5022 0.0 0
M  V30 16 C -11.7105 -2.2474 0.0 0
M  V30 17 O -11.7105 -3.7497 0.0 0
M  V30 18 O -13.0117 -1.5022 0.0 0
M  V30 19 C -14.3129 -2.2474 0.0 0
M  V30 20 C -15.614 -1.5022 0.0 0
M  V30 21 C -16.9152 -2.2474 0.0 0
M  V30 22 C -15.614 0.0 0.0 0
M  V30 END ATOM
M  V30 BEGIN BOND
M  V30 1 2 1 2
M  V30 2 1 2 3
M  V30 3 1 2 4
M  V30 4 1 3 5
M  V30 5 1 4 6
M  V30 6 1 5 7
M  V30 7 1 6 8
M  V30 8 2 7 9
M  V30 9 1 7 10
M  V30 10 1 8 11
M  V30 11 1 11 12
M  V30 12 1 12 13
M  V30 13 1 13 14
M  V30 14 1 14 15
M  V30 15 1 15 16
M  V30 16 2 16 17
M  V30 17 1 16 18
M  V30 18 1 18 19
M  V30 19 1 19 20
M  V30 20 2 20 21
M  V30 21 1 20 22
M  V30 END BOND
M  V30 END CTAB
M  END
>  <Molecule Name>
Sebacic acid, dimethallyl ester

>  <Activity Label>
0

>  <SMILES>
CC(COC(CCCCCCCCC(OCC(C)=C)=O)=O)=C

>  <Molecular Formula>
C18H30O4

>  <InChIKey>
CFTKERLTNFRMBO-UHFFFAOYSA-N

>  <Repellency>
Inactive

>  <Reference DOI>
10.3390/toxics11100837

>  <Target Organism>
Not applied

$$$$
Compound 1096
Actelion Java MolfileCreator 2.0

  0  0  0  0  0  0              0 V3000
M  V30 BEGIN CTAB
M  V30 COUNTS 22 21 0 0 0
M  V30 BEGIN ATOM
M  V30 1 O 0.0 0.0 0.0 0
M  V30 2 C 0.0 -1.5022 0.0 0
M  V30 3 O 1.3011 -2.2474 0.0 0
M  V30 4 C -1.3011 -2.2474 0.0 0
M  V30 5 C 2.6023 -1.5022 0.0 0
M  V30 6 C -2.6023 -1.5022 0.0 0
M  V30 7 C 3.9035 -2.2474 0.0 0
M  V30 8 C -3.9035 -2.2474 0.0 0
M  V30 9 C 5.2046 -1.5022 0.0 0
M  V30 10 C 3.9035 -3.7497 0.0 0
M  V30 11 C -5.2046 -1.5022 0.0 0
M  V30 12 C -6.5058 -2.2474 0.0 0
M  V30 13 C -7.807 -1.5022 0.0 0
M  V30 14 C -9.1082 -2.2474 0.0 0
M  V30 15 C -10.4093 -1.5022 0.0 0
M  V30 16 C -11.7105 -2.2474 0.0 0
M  V30 17 O -11.7105 -3.7497 0.0 0
M  V30 18 O -13.0117 -1.5022 0.0 0
M  V30 19 C -14.3129 -2.2474 0.0 0
M  V30 20 C -15.614 -1.5022 0.0 0
M  V30 21 C -15.614 0.0 0.0 0
M  V30 22 C -16.9152 -2.2474 0.0 0
M  V30 END ATOM
M  V30 BEGIN BOND
M  V30 1 2 1 2
M  V30 2 1 2 3
M  V30 3 1 2 4
M  V30 4 1 3 5
M  V30 5 1 4 6
M  V30 6 1 5 7
M  V30 7 1 6 8
M  V30 8 1 7 9
M  V30 9 1 7 10
M  V30 10 1 8 11
M  V30 11 1 11 12
M  V30 12 1 12 13
M  V30 13 1 13 14
M  V30 14 1 14 15
M  V30 15 1 15 16
M  V30 16 2 16 17
M  V30 17 1 16 18
M  V30 18 1 18 19
M  V30 19 1 19 20
M  V30 20 1 20 21
M  V30 21 1 20 22
M  V30 END BOND
M  V30 END CTAB
M  END
>  <Molecule Name>
Sebacic acid, di-iso-butyl ester

>  <Activity Label>
0

>  <SMILES>
CC(C)COC(CCCCCCCCC(OCC(C)C)=O)=O

>  <Molecular Formula>
C18H34O4

>  <InChIKey>
HMOFGLGHQFZQDS-UHFFFAOYSA-N

>  <Repellency>
Inactive

>  <Reference DOI>
10.3390/toxics11100837

>  <Target Organism>
Not applied

$$$$
Compound 1097
Actelion Java MolfileCreator 2.0

  0  0  0  0  0  0              0 V3000
M  V30 BEGIN CTAB
M  V30 COUNTS 22 21 0 0 0
M  V30 BEGIN ATOM
M  V30 1 O 0.0 0.0 0.0 0
M  V30 2 C 0.0 1.5025 0.0 0
M  V30 3 O 1.3014 2.2478 0.0 0
M  V30 4 C -1.3014 2.2478 0.0 0
M  V30 5 C 2.6028 1.5025 0.0 0
M  V30 6 C -2.6028 1.5025 0.0 0
M  V30 7 C 3.9042 2.2478 0.0 0
M  V30 8 C -3.9042 2.2478 0.0 0
M  V30 9 C -5.2056 1.5025 0.0 0
M  V30 10 C -6.507 2.2478 0.0 0
M  V30 11 C -7.8084 1.5025 0.0 0
M  V30 12 C -9.1098 2.2478 0.0 0
M  V30 13 C -10.4112 1.5025 0.0 0
M  V30 14 C -11.7126 2.2478 0.0 0
M  V30 15 C -13.014 1.5025 0.0 0
M  V30 16 C -14.3154 2.2478 0.0 0
M  V30 17 C -15.6168 1.5025 0.0 0
M  V30 18 C -16.9182 2.2478 0.0 0
M  V30 19 O -16.9182 3.7504 0.0 0
M  V30 20 O -18.2196 1.5025 0.0 0
M  V30 21 C -19.521 2.2478 0.0 0
M  V30 22 C -20.8224 1.5025 0.0 0
M  V30 END ATOM
M  V30 BEGIN BOND
M  V30 1 2 1 2
M  V30 2 1 2 3
M  V30 3 1 2 4
M  V30 4 1 3 5
M  V30 5 1 4 6
M  V30 6 1 5 7
M  V30 7 1 6 8
M  V30 8 1 8 9
M  V30 9 1 9 10
M  V30 10 1 10 11
M  V30 11 1 11 12
M  V30 12 1 12 13
M  V30 13 1 13 14
M  V30 14 1 14 15
M  V30 15 1 15 16
M  V30 16 1 16 17
M  V30 17 1 17 18
M  V30 18 2 18 19
M  V30 19 1 18 20
M  V30 20 1 20 21
M  V30 21 1 21 22
M  V30 END BOND
M  V30 END CTAB
M  END
>  <Molecule Name>
Dodecane-1,12-dicarboxylic acid, diethyl ester

>  <Activity Label>
0

>  <SMILES>
CCOC(CCCCCCCCCCCCC(OCC)=O)=O

>  <Molecular Formula>
C18H34O4

>  <InChIKey>
XXYWYFSQJPFXBD-UHFFFAOYSA-N

>  <Repellency>
Inactive

>  <Reference DOI>
10.3390/toxics11100837

>  <Target Organism>
Not applied

$$$$
Compound 1098
Actelion Java MolfileCreator 2.0

  0  0  0  0  0  0              0 V3000
M  V30 BEGIN CTAB
M  V30 COUNTS 22 21 0 0 0
M  V30 BEGIN ATOM
M  V30 1 O 0.0 0.0 0.0 0
M  V30 2 C 0.0 -1.5025 0.0 0
M  V30 3 O -1.3014 -2.2478 0.0 0
M  V30 4 C 1.3014 -2.2478 0.0 0
M  V30 5 C -2.6028 -1.5025 0.0 0
M  V30 6 C 2.6028 -1.5025 0.0 0
M  V30 7 C -3.9042 -2.2478 0.0 0
M  V30 8 C 3.9042 -2.2478 0.0 0
M  V30 9 C -5.2056 -1.5025 0.0 0
M  V30 10 O 3.9042 -3.7504 0.0 0
M  V30 11 O 5.2056 -1.5025 0.0 0
M  V30 12 C -6.507 -2.2478 0.0 0
M  V30 13 C 6.507 -2.2478 0.0 0
M  V30 14 C -7.8084 -1.5025 0.0 0
M  V30 15 C 7.8084 -1.5025 0.0 0
M  V30 16 C -9.1098 -2.2478 0.0 0
M  V30 17 C -10.4112 -1.5025 0.0 0
M  V30 18 C -11.7126 -2.2478 0.0 0
M  V30 19 C -13.014 -1.5025 0.0 0
M  V30 20 C -14.3154 -2.2478 0.0 0
M  V30 21 C -15.6168 -1.5025 0.0 0
M  V30 22 C -16.9182 -2.2478 0.0 0
M  V30 END ATOM
M  V30 BEGIN BOND
M  V30 1 2 1 2
M  V30 2 1 2 3
M  V30 3 1 2 4
M  V30 4 1 3 5
M  V30 5 1 4 6
M  V30 6 1 5 7
M  V30 7 1 6 8
M  V30 8 1 7 9
M  V30 9 2 8 10
M  V30 10 1 8 11
M  V30 11 1 9 12
M  V30 12 1 11 13
M  V30 13 1 12 14
M  V30 14 1 13 15
M  V30 15 1 14 16
M  V30 16 1 16 17
M  V30 17 1 17 18
M  V30 18 1 18 19
M  V30 19 1 19 20
M  V30 20 1 20 21
M  V30 21 1 21 22
M  V30 END BOND
M  V30 END CTAB
M  END
>  <Molecule Name>
Succinic acid, dodecyl ethyl ester

>  <Activity Label>
0

>  <SMILES>
CCCCCCCCCCCCOC(CCC(OCC)=O)=O

>  <Molecular Formula>
C18H34O4

>  <InChIKey>
FNPNHFHDNNBGKG-UHFFFAOYSA-N

>  <Repellency>
Inactive

>  <Reference DOI>
10.3390/toxics11100837

>  <Target Organism>
Not applied

$$$$
Compound 1099
Actelion Java MolfileCreator 2.0

  0  0  0  0  0  0              0 V3000
M  V30 BEGIN CTAB
M  V30 COUNTS 22 21 0 0 0
M  V30 BEGIN ATOM
M  V30 1 O 0.0 0.0 0.0 0
M  V30 2 C 0.0 1.5019 0.0 0
M  V30 3 O 1.3009 2.247 0.0 0
M  V30 4 C -1.3009 2.247 0.0 0
M  V30 5 C 2.6018 1.5019 0.0 0
M  V30 6 O -1.3009 3.749 0.0 0
M  V30 7 O -2.6018 1.5019 0.0 0
M  V30 8 C 3.9027 2.247 0.0 0
M  V30 9 C -3.9027 2.247 0.0 0
M  V30 10 C 5.2037 1.5019 0.0 0
M  V30 11 C 3.9027 3.749 0.0 0
M  V30 12 C -5.2037 1.5019 0.0 0
M  V30 13 C 6.5046 2.247 0.0 0
M  V30 14 C 2.6018 4.5059 0.0 0
M  V30 15 C -6.5046 2.247 0.0 0
M  V30 16 C -5.2037 0.0 0.0 0
M  V30 17 C 7.8055 1.5019 0.0 0
M  V30 18 C -7.8055 1.5019 0.0 0
M  V30 19 C -3.9027 -0.745 0.0 0
M  V30 20 C 9.1065 2.247 0.0 0
M  V30 21 C -9.1065 2.247 0.0 0
M  V30 22 C -10.4074 1.5019 0.0 0
M  V30 END ATOM
M  V30 BEGIN BOND
M  V30 1 2 1 2
M  V30 2 1 2 3
M  V30 3 1 2 4
M  V30 4 1 3 5
M  V30 5 2 4 6
M  V30 6 1 4 7
M  V30 7 1 5 8
M  V30 8 1 7 9
M  V30 9 1 8 10
M  V30 10 1 8 11
M  V30 11 1 9 12
M  V30 12 1 10 13
M  V30 13 1 11 14
M  V30 14 1 12 15
M  V30 15 1 12 16
M  V30 16 1 13 17
M  V30 17 1 15 18
M  V30 18 1 16 19
M  V30 19 1 17 20
M  V30 20 1 18 21
M  V30 21 1 21 22
M  V30 END BOND
M  V30 END CTAB
M  END
>  <Molecule Name>
Oxalic acid, di-(2-ethylhexyl) ester

>  <Activity Label>
0

>  <SMILES>
CCCCC(CC)COC(C(OCC(CC)CCCC)=O)=O

>  <Molecular Formula>
C18H34O4

>  <InChIKey>
UNJCTNQOWIWHFN-UHFFFAOYSA-N

>  <Repellency>
Inactive

>  <Reference DOI>
10.3390/toxics11100837

>  <Target Organism>
Not applied

$$$$
Compound 1100
Actelion Java MolfileCreator 2.0

  0  0  0  0  0  0              0 V3000
M  V30 BEGIN CTAB
M  V30 COUNTS 22 21 0 0 0
M  V30 BEGIN ATOM
M  V30 1 O 0.0 0.0 0.0 0
M  V30 2 C 0.0 -1.4995 0.0 0
M  V30 3 O -1.2988 -2.2552 0.0 0
M  V30 4 C 1.2988 -2.2552 0.0 0
M  V30 5 C -2.5976 -1.5113 0.0 0
M  V30 6 C 2.5976 -1.5113 0.0 0
M  V30 7 C -3.8965 -2.267 0.0 0
M  V30 8 C 3.8965 -2.267 0.0 0
M  V30 9 C -5.1953 -1.5231 0.0 0
M  V30 10 C 5.1953 -1.5231 0.0 0
M  V30 11 C -6.4941 -2.2788 0.0 0
M  V30 12 C 6.4941 -2.2788 0.0 0
M  V30 13 C 7.793 -1.5349 0.0 0
M  V30 14 C 9.0918 -2.2906 0.0 0
M  V30 15 C 10.3906 -1.5467 0.0 0
M  V30 16 C 11.6895 -2.3024 0.0 0
M  V30 17 C 12.9883 -1.5586 0.0 0
M  V30 18 C 14.2872 -2.3142 0.0 0
M  V30 19 C 15.586 -1.5704 0.0 0
M  V30 20 C 16.8848 -2.326 0.0 0
M  V30 21 C 18.1837 -1.5822 0.0 0
M  V30 22 C 19.4825 -2.3379 0.0 0
M  V30 END ATOM
M  V30 BEGIN BOND
M  V30 1 2 1 2
M  V30 2 1 2 3
M  V30 3 1 2 4
M  V30 4 1 3 5
M  V30 5 1 4 6
M  V30 6 1 5 7
M  V30 7 1 6 8
M  V30 8 1 7 9
M  V30 9 1 8 10
M  V30 10 1 9 11
M  V30 11 1 10 12
M  V30 12 1 12 13
M  V30 13 1 13 14
M  V30 14 1 14 15
M  V30 15 1 15 16
M  V30 16 1 16 17
M  V30 17 1 17 18
M  V30 18 1 18 19
M  V30 19 1 19 20
M  V30 20 1 20 21
M  V30 21 1 21 22
M  V30 END BOND
M  V30 END CTAB
M  END
>  <Molecule Name>
Hexadecanoic acid, butyl ester

>  <Activity Label>
0

>  <SMILES>
CCCCCCCCCCCCCCCC(OCCCC)=O

>  <Molecular Formula>
C20H40O2

>  <InChIKey>
GLYJVQDYLFAUFC-UHFFFAOYSA-N

>  <Repellency>
Inactive

>  <Reference DOI>
10.3390/toxics11100837

>  <Target Organism>
Not applied

$$$$
Compound 1101
Actelion Java MolfileCreator 2.0

  0  0  0  0  0  0              0 V3000
M  V30 BEGIN CTAB
M  V30 COUNTS 22 21 0 0 0
M  V30 BEGIN ATOM
M  V30 1 O 0.0 0.0 0.0 0
M  V30 2 C 0.0 -1.5015 0.0 0
M  V30 3 O -1.3005 -2.2464 0.0 0
M  V30 4 C 1.3005 -2.2464 0.0 0
M  V30 5 C -2.6011 -1.5015 0.0 0
M  V30 6 C 2.6011 -1.5015 0.0 0
M  V30 7 C -3.9017 -2.2464 0.0 0
M  V30 8 C 3.9017 -2.2464 0.0 0
M  V30 9 C 5.2022 -1.5015 0.0 0
M  V30 10 C 6.5028 -2.2464 0.0 0
M  V30 11 C 7.8034 -1.5015 0.0 0
M  V30 12 C 9.1039 -2.2464 0.0 0
M  V30 13 C 10.4045 -1.5015 0.0 0
M  V30 14 C 11.7051 -2.2464 0.0 0
M  V30 15 C 11.7051 -3.748 0.0 0
M  V30 16 C 13.0056 -4.5047 0.0 0
M  V30 17 C 13.0056 -6.0062 0.0 0
M  V30 18 C 14.3062 -6.7629 0.0 0
M  V30 19 C 14.3062 -8.2645 0.0 0
M  V30 20 C 15.6068 -9.0094 0.0 0
M  V30 21 C 15.6068 -10.5109 0.0 0
M  V30 22 C 16.9074 -11.2558 0.0 0
M  V30 END ATOM
M  V30 BEGIN BOND
M  V30 1 2 1 2
M  V30 2 1 2 3
M  V30 3 1 2 4
M  V30 4 1 3 5
M  V30 5 1 4 6
M  V30 6 1 5 7
M  V30 7 1 6 8
M  V30 8 1 8 9
M  V30 9 1 9 10
M  V30 10 1 10 11
M  V30 11 1 11 12
M  V30 12 1 12 13
M  V30 13 2 13 14
M  V30 14 1 14 15
M  V30 15 1 15 16
M  V30 16 1 16 17
M  V30 17 1 17 18
M  V30 18 1 18 19
M  V30 19 1 19 20
M  V30 20 1 20 21
M  V30 21 1 21 22
M  V30 END BOND
M  V30 END CTAB
M  END
>  <Molecule Name>
Oleic acid, ethyl ester

>  <Activity Label>
0

>  <SMILES>
CCCCCCCC/C=C\CCCCCCCC(OCC)=O

>  <Molecular Formula>
C20H38O2

>  <InChIKey>
LVGKNOAMLMIIKO-QXMHVHEDSA-N

>  <Repellency>
Inactive

>  <Reference DOI>
10.3390/toxics11100837

>  <Target Organism>
Not applied

$$$$
Compound 1102
Actelion Java MolfileCreator 2.0

  0  0  0  0  0  0              0 V3000
M  V30 BEGIN CTAB
M  V30 COUNTS 22 21 0 0 0
M  V30 BEGIN ATOM
M  V30 1 O 0.0 0.0 0.0 0
M  V30 2 C 0.0 -1.4995 0.0 0
M  V30 3 O -1.2988 -2.2552 0.0 0
M  V30 4 C 1.2988 -2.2552 0.0 0
M  V30 5 C -2.5976 -1.5113 0.0 0
M  V30 6 C 2.5976 -1.5113 0.0 0
M  V30 7 C -3.8965 -2.267 0.0 0
M  V30 8 C 3.8965 -2.267 0.0 0
M  V30 9 C 5.1953 -1.5231 0.0 0
M  V30 10 C 6.4941 -2.2788 0.0 0
M  V30 11 C 7.793 -1.5349 0.0 0
M  V30 12 C 9.0918 -2.2906 0.0 0
M  V30 13 C 10.3906 -1.5467 0.0 0
M  V30 14 C 11.6895 -2.3024 0.0 0
M  V30 15 C 12.9883 -1.5586 0.0 0
M  V30 16 C 14.2872 -2.3142 0.0 0
M  V30 17 C 15.586 -1.5704 0.0 0
M  V30 18 C 16.8848 -2.326 0.0 0
M  V30 19 C 18.1837 -1.5822 0.0 0
M  V30 20 C 19.4825 -2.3379 0.0 0
M  V30 21 C 20.7813 -1.594 0.0 0
M  V30 22 C 22.0802 -2.3497 0.0 0
M  V30 END ATOM
M  V30 BEGIN BOND
M  V30 1 2 1 2
M  V30 2 1 2 3
M  V30 3 1 2 4
M  V30 4 1 3 5
M  V30 5 1 4 6
M  V30 6 1 5 7
M  V30 7 1 6 8
M  V30 8 1 8 9
M  V30 9 1 9 10
M  V30 10 1 10 11
M  V30 11 1 11 12
M  V30 12 1 12 13
M  V30 13 1 13 14
M  V30 14 1 14 15
M  V30 15 1 15 16
M  V30 16 1 16 17
M  V30 17 1 17 18
M  V30 18 1 18 19
M  V30 19 1 19 20
M  V30 20 1 20 21
M  V30 21 1 21 22
M  V30 END BOND
M  V30 END CTAB
M  END
>  <Molecule Name>
Stearic acid, ethyl ester

>  <Activity Label>
0

>  <SMILES>
CCCCCCCCCCCCCCCCCC(OCC)=O

>  <Molecular Formula>
C20H40O2

>  <InChIKey>
MVLVMROFTAUDAG-UHFFFAOYSA-N

>  <Repellency>
Inactive

>  <Reference DOI>
10.3390/toxics11100837

>  <Target Organism>
Not applied

$$$$
Compound 1103
Actelion Java MolfileCreator 2.0

  0  0  0  0  0  0              0 V3000
M  V30 BEGIN CTAB
M  V30 COUNTS 22 21 0 0 0
M  V30 BEGIN ATOM
M  V30 1 O 0.0 0.0 0.0 0
M  V30 2 C 0.0 -1.5026 0.0 0
M  V30 3 O -1.3015 -2.248 0.0 0
M  V30 4 C 1.3015 -2.248 0.0 0
M  V30 5 C -2.603 -1.5026 0.0 0
M  V30 6 C -3.9045 -2.248 0.0 0
M  V30 7 C -5.206 -1.5026 0.0 0
M  V30 8 C -6.5076 -2.248 0.0 0
M  V30 9 C -7.8091 -1.5026 0.0 0
M  V30 10 C -9.1106 -2.248 0.0 0
M  V30 11 C -10.4121 -1.5026 0.0 0
M  V30 12 C -11.7136 -2.248 0.0 0
M  V30 13 C -13.0152 -1.5026 0.0 0
M  V30 14 C -14.3167 -2.248 0.0 0
M  V30 15 C -15.6182 -1.5026 0.0 0
M  V30 16 C -16.9197 -2.248 0.0 0
M  V30 17 C -18.2212 -1.5026 0.0 0
M  V30 18 C -19.5228 -2.248 0.0 0
M  V30 19 C -20.8243 -1.5026 0.0 0
M  V30 20 C -22.1258 -2.248 0.0 0
M  V30 21 C -23.4273 -1.5026 0.0 0
M  V30 22 C -24.7288 -2.248 0.0 0
M  V30 END ATOM
M  V30 BEGIN BOND
M  V30 1 2 1 2
M  V30 2 1 2 3
M  V30 3 1 2 4
M  V30 4 1 3 5
M  V30 5 1 5 6
M  V30 6 1 6 7
M  V30 7 1 7 8
M  V30 8 1 8 9
M  V30 9 1 9 10
M  V30 10 1 10 11
M  V30 11 1 11 12
M  V30 12 1 12 13
M  V30 13 1 13 14
M  V30 14 1 14 15
M  V30 15 1 15 16
M  V30 16 1 16 17
M  V30 17 1 17 18
M  V30 18 1 18 19
M  V30 19 1 19 20
M  V30 20 1 20 21
M  V30 21 1 21 22
M  V30 END BOND
M  V30 END CTAB
M  END
>  <Molecule Name>
Acetic acid, stearyl ester

>  <Activity Label>
0

>  <SMILES>
CCCCCCCCCCCCCCCCCCOC(C)=O

>  <Molecular Formula>
C20H40O2

>  <InChIKey>
OIZXRZCQJDXPFO-UHFFFAOYSA-N

>  <Repellency>
Inactive

>  <Reference DOI>
10.3390/toxics11100837

>  <Target Organism>
Not applied

$$$$
Compound 1104
Actelion Java MolfileCreator 2.0

  0  0  0  0  0  0              0 V3000
M  V30 BEGIN CTAB
M  V30 COUNTS 22 21 0 0 0
M  V30 BEGIN ATOM
M  V30 1 Cl 0.0 0.0 0.0 0
M  V30 2 C 1.2969 0.7545 0.0 0
M  V30 3 C 2.5938 0.0 0.0 0
M  V30 4 O 3.8907 0.7545 0.0 0
M  V30 5 C 5.1876 0.0 0.0 0
M  V30 6 C 6.4845 0.7545 0.0 0
M  V30 7 O 7.7814 0.0 0.0 0
M  V30 8 C 9.0783 0.7545 0.0 0
M  V30 9 O 9.0783 2.2519 0.0 0
M  V30 10 C 10.3752 0.0 0.0 0 CFG=1
M  V30 11 O 11.6721 0.7545 0.0 0
M  V30 12 C 10.3752 -1.4973 0.0 0
M  V30 13 C 12.969 0.0 0.0 0
M  V30 14 O 12.969 -1.4973 0.0 0
M  V30 15 C 14.2659 0.7545 0.0 0
M  V30 16 C 15.5628 0.0 0.0 0
M  V30 17 C 16.8597 0.7545 0.0 0
M  V30 18 C 18.1566 0.0 0.0 0
M  V30 19 C 19.4535 0.7545 0.0 0
M  V30 20 C 20.7504 0.0 0.0 0
M  V30 21 C 22.0474 0.7545 0.0 0
M  V30 22 C 23.3443 0.0 0.0 0
M  V30 END ATOM
M  V30 BEGIN BOND
M  V30 1 1 1 2
M  V30 2 1 2 3
M  V30 3 1 3 4
M  V30 4 1 4 5
M  V30 5 1 5 6
M  V30 6 1 6 7
M  V30 7 1 7 8
M  V30 8 2 8 9
M  V30 9 1 8 10
M  V30 10 1 10 11
M  V30 11 1 10 12 CFG=1
M  V30 12 1 11 13
M  V30 13 2 13 14
M  V30 14 1 13 15
M  V30 15 1 15 16
M  V30 16 1 16 17
M  V30 17 1 17 18
M  V30 18 1 18 19
M  V30 19 1 19 20
M  V30 20 1 20 21
M  V30 21 1 21 22
M  V30 END BOND
M  V30 BEGIN COLLECTION
M  V30 MDLV30/STERAC1 ATOMS=(1 10)
M  V30 END COLLECTION
M  V30 END CTAB
M  END
>  <Molecule Name>
alpha-Pelargonoxypropionic acid, beta-chloroethoxyethyl ester

>  <Activity Label>
0

>  <SMILES>
CCCCCCCCC(OC(C)C(OCCOCCCl)=O)=O

>  <Molecular Formula>
C16H29O5Cl

>  <InChIKey>
PCISAQJNSKTBKM-UHFFFAOYSA-N

>  <Repellency>
Inactive

>  <Reference DOI>
10.3390/toxics11100837

>  <Target Organism>
Not applied

$$$$
Compound 1105
Actelion Java MolfileCreator 2.0

  0  0  0  0  0  0              0 V3000
M  V30 BEGIN CTAB
M  V30 COUNTS 22 21 0 0 0
M  V30 BEGIN ATOM
M  V30 1 O 0.0 0.0 0.0 0
M  V30 2 C 0.0 1.5001 0.0 0
M  V30 3 O 1.2993 2.2443 0.0 0
M  V30 4 C -1.2993 2.2443 0.0 0 CFG=1
M  V30 5 C 2.5986 1.4883 0.0 0
M  V30 6 O -1.2993 3.7444 0.0 0
M  V30 7 C -2.5986 1.4883 0.0 0
M  V30 8 C 3.898 2.2324 0.0 0
M  V30 9 C -2.5986 -0.0118 0.0 0
M  V30 10 C -3.898 2.2324 0.0 0
M  V30 11 C 5.1973 1.4765 0.0 0
M  V30 12 C -1.2993 -0.7559 0.0 0
M  V30 13 C -5.1973 1.4765 0.0 0
M  V30 14 C 6.4966 2.2206 0.0 0
M  V30 15 C 7.796 1.4647 0.0 0
M  V30 16 C 9.0953 2.2088 0.0 0
M  V30 17 C 10.3946 1.4528 0.0 0
M  V30 18 C 11.694 2.197 0.0 0
M  V30 19 C 12.9933 1.441 0.0 0
M  V30 20 C 14.2927 2.1852 0.0 0
M  V30 21 C 15.592 1.4292 0.0 0
M  V30 22 C 16.8913 2.1734 0.0 0
M  V30 END ATOM
M  V30 BEGIN BOND
M  V30 1 2 1 2
M  V30 2 1 2 3
M  V30 3 1 2 4
M  V30 4 1 3 5
M  V30 5 1 4 6 CFG=3
M  V30 6 1 4 7
M  V30 7 1 5 8
M  V30 8 1 7 9
M  V30 9 1 7 10
M  V30 10 1 8 11
M  V30 11 1 9 12
M  V30 12 1 10 13
M  V30 13 1 11 14
M  V30 14 1 14 15
M  V30 15 1 15 16
M  V30 16 1 16 17
M  V30 17 1 17 18
M  V30 18 1 18 19
M  V30 19 1 19 20
M  V30 20 1 20 21
M  V30 21 1 21 22
M  V30 END BOND
M  V30 BEGIN COLLECTION
M  V30 MDLV30/STERAC1 ATOMS=(1 4)
M  V30 END COLLECTION
M  V30 END CTAB
M  END
>  <Molecule Name>
2-Hydroxy-3-ethylvaleric acid, dodecyl ester

>  <Activity Label>
0

>  <SMILES>
CCCCCCCCCCCCOC(C(C(CC)CC)O)=O

>  <Molecular Formula>
C19H38O3

>  <InChIKey>
GSPWQKKZLFZITF-UHFFFAOYSA-N

>  <Repellency>
Inactive

>  <Reference DOI>
10.3390/toxics11100837

>  <Target Organism>
Not applied

$$$$
Compound 1106
Actelion Java MolfileCreator 2.0

  0  0  0  0  0  0              0 V3000
M  V30 BEGIN CTAB
M  V30 COUNTS 22 21 0 0 0
M  V30 BEGIN ATOM
M  V30 1 O 0.0 0.0 0.0 0
M  V30 2 C 0.0 -1.5022 0.0 0
M  V30 3 O -1.3011 -2.2474 0.0 0
M  V30 4 C 1.3011 -2.2474 0.0 0
M  V30 5 C -2.6023 -1.5022 0.0 0
M  V30 6 O 2.6023 -1.5022 0.0 0
M  V30 7 C 1.3011 -3.7497 0.0 0
M  V30 8 C -3.9035 -2.2474 0.0 0
M  V30 9 C 3.9035 -2.2474 0.0 0
M  V30 10 O -5.2046 -1.5022 0.0 0
M  V30 11 O 3.9035 -3.7497 0.0 0
M  V30 12 C 5.2046 -1.5022 0.0 0
M  V30 13 C -6.5058 -2.2474 0.0 0
M  V30 14 C -7.807 -1.5022 0.0 0
M  V30 15 O -9.1082 -2.2474 0.0 0
M  V30 16 C -10.4093 -1.5022 0.0 0
M  V30 17 O -11.7105 -2.2474 0.0 0
M  V30 18 C -10.4093 0.0 0.0 0
M  V30 19 C -13.0117 -1.5022 0.0 0
M  V30 20 C -14.3129 -2.2474 0.0 0
M  V30 21 C -15.614 -1.5022 0.0 0
M  V30 22 C -16.9152 -2.2474 0.0 0
M  V30 END ATOM
M  V30 BEGIN BOND
M  V30 1 2 1 2
M  V30 2 1 2 3
M  V30 3 1 2 4
M  V30 4 1 3 5
M  V30 5 1 4 6
M  V30 6 1 4 7
M  V30 7 1 5 8
M  V30 8 1 6 9
M  V30 9 1 8 10
M  V30 10 2 9 11
M  V30 11 1 9 12
M  V30 12 1 10 13
M  V30 13 1 13 14
M  V30 14 1 14 15
M  V30 15 1 15 16
M  V30 16 1 16 17
M  V30 17 1 16 18
M  V30 18 1 17 19
M  V30 19 1 19 20
M  V30 20 1 20 21
M  V30 21 1 21 22
M  V30 END BOND
M  V30 END CTAB
M  END
>  <Molecule Name>
alpha-Acetoxypropionic acid, alpha-butoxyethoxyethoxyethyl ester

>  <Activity Label>
0

>  <SMILES>
CCCCOC(C)OCCOCCOC(C(C)OC(C)=O)=O

>  <Molecular Formula>
C15H28O7

>  <InChIKey>
OVQRZRMWQUMVEB-UHFFFAOYSA-N

>  <Repellency>
Inactive

>  <Reference DOI>
10.3390/toxics11100837

>  <Target Organism>
Not applied

$$$$
Compound 1107
Actelion Java MolfileCreator 2.0

  0  0  0  0  0  0              0 V3000
M  V30 BEGIN CTAB
M  V30 COUNTS 22 21 0 0 0
M  V30 BEGIN ATOM
M  V30 1 O 0.0 0.0 0.0 0
M  V30 2 C 1.3004 0.7448 0.0 0
M  V30 3 O 1.3004 2.2462 0.0 0
M  V30 4 C 2.6009 -0.0118 0.0 0
M  V30 5 C 2.6009 2.991 0.0 0
M  V30 6 C 1.3004 -0.7566 0.0 0
M  V30 7 C 3.9013 0.7329 0.0 0
M  V30 8 C 2.6009 -1.5132 0.0 0
M  V30 9 C 2.6009 4.4924 0.0 0
M  V30 10 N 0.0 -1.5014 0.0 0
M  V30 11 C 5.2018 -0.0118 0.0 0
M  V30 12 C 1.3004 -2.258 0.0 0
M  V30 13 C 6.5022 0.7329 0.0 0
M  V30 14 C 1.3004 -3.7594 0.0 0
M  V30 15 O 6.5022 2.2344 0.0 0
M  V30 16 O 7.8027 -0.0118 0.0 0
M  V30 17 O 2.6009 -4.5043 0.0 0
M  V30 18 O 0.0 -4.5043 0.0 0
M  V30 19 C 9.1031 0.7329 0.0 0
M  V30 20 C 0.0 -6.0057 0.0 0
M  V30 21 C 10.4036 -0.0118 0.0 0
M  V30 22 C -1.3004 -6.7623 0.0 0
M  V30 END ATOM
M  V30 BEGIN BOND
M  V30 1 2 1 2
M  V30 2 1 2 3
M  V30 3 1 2 4
M  V30 4 1 3 5
M  V30 5 1 4 6
M  V30 6 1 4 7
M  V30 7 1 4 8
M  V30 8 1 5 9
M  V30 9 3 6 10
M  V30 10 1 7 11
M  V30 11 1 8 12
M  V30 12 1 11 13
M  V30 13 1 12 14
M  V30 14 2 13 15
M  V30 15 1 13 16
M  V30 16 2 14 17
M  V30 17 1 14 18
M  V30 18 1 16 19
M  V30 19 1 18 20
M  V30 20 1 19 21
M  V30 21 1 20 22
M  V30 END BOND
M  V30 END CTAB
M  END
>  <Molecule Name>
gamma-Carboethoxy-gamma-cyano-pimelic acid, diethyl ester

>  <Activity Label>
0

>  <SMILES>
CCOC(CCC(CCC(OCC)=O)(C(OCC)=O)C#N)=O

>  <Molecular Formula>
C15H23NO6

>  <InChIKey>
KWGZTKPIPLQODU-UHFFFAOYSA-N

>  <Repellency>
Inactive

>  <Reference DOI>
10.3390/toxics11100837

>  <Target Organism>
Not applied

$$$$
Compound 1108
Actelion Java MolfileCreator 2.0

  0  0  0  0  0  0              0 V3000
M  V30 BEGIN CTAB
M  V30 COUNTS 22 21 0 0 0
M  V30 BEGIN ATOM
M  V30 1 O 0.0 0.0 0.0 0
M  V30 2 C 0.0 -1.5018 0.0 0
M  V30 3 N 1.3008 -2.2468 0.0 0
M  V30 4 C -1.3008 -2.2468 0.0 0
M  V30 5 C 2.6016 -1.5018 0.0 0
M  V30 6 C 1.3008 -3.7486 0.0 0
M  V30 7 C -2.6016 -1.5018 0.0 0
M  V30 8 C 3.9024 -2.2468 0.0 0
M  V30 9 C 2.6016 -4.5055 0.0 0
M  V30 10 C -3.9024 -2.2468 0.0 0
M  V30 11 C 5.2032 -1.5018 0.0 0
M  V30 12 C 2.6016 -6.0073 0.0 0
M  V30 13 C -5.2032 -1.5018 0.0 0
M  V30 14 C 6.504 -2.2468 0.0 0
M  V30 15 C 3.9024 -6.7641 0.0 0
M  V30 16 C -6.504 -2.2468 0.0 0
M  V30 17 C -7.8048 -1.5018 0.0 0
M  V30 18 C -9.1056 -2.2468 0.0 0
M  V30 19 C -10.4064 -1.5018 0.0 0
M  V30 20 C -11.7072 -2.2468 0.0 0
M  V30 21 C -13.008 -1.5018 0.0 0
M  V30 22 C -14.3088 -2.2468 0.0 0
M  V30 END ATOM
M  V30 BEGIN BOND
M  V30 1 2 1 2
M  V30 2 1 2 3
M  V30 3 1 2 4
M  V30 4 1 3 5
M  V30 5 1 3 6
M  V30 6 1 4 7
M  V30 7 1 5 8
M  V30 8 1 6 9
M  V30 9 1 7 10
M  V30 10 1 8 11
M  V30 11 1 9 12
M  V30 12 1 10 13
M  V30 13 1 11 14
M  V30 14 1 12 15
M  V30 15 1 13 16
M  V30 16 1 16 17
M  V30 17 1 17 18
M  V30 18 1 18 19
M  V30 19 1 19 20
M  V30 20 1 20 21
M  V30 21 1 21 22
M  V30 END BOND
M  V30 END CTAB
M  END
>  <Molecule Name>
N,N-Dibutyllauramide

>  <Activity Label>
0

>  <SMILES>
CCCCCCCCCCCC(N(CCCC)CCCC)=O

>  <Molecular Formula>
C20H41NO

>  <InChIKey>
MFARGUPPFBTESX-UHFFFAOYSA-N

>  <Repellency>
Inactive

>  <Reference DOI>
10.3390/toxics11100837

>  <Target Organism>
Not applied

$$$$
Compound 1109
Actelion Java MolfileCreator 2.0

  0  0  0  0  0  0              0 V3000
M  V30 BEGIN CTAB
M  V30 COUNTS 22 23 0 0 0
M  V30 BEGIN ATOM
M  V30 1 O 0.0 0.0 0.0 0
M  V30 2 C 0.0 1.5015 0.0 0
M  V30 3 O -1.3005 2.2464 0.0 0
M  V30 4 C 1.3005 2.2464 0.0 0
M  V30 5 C -2.6011 1.5015 0.0 0
M  V30 6 C 1.3005 3.7479 0.0 0
M  V30 7 C 2.6011 1.5015 0.0 0
M  V30 8 C -3.9016 2.2464 0.0 0
M  V30 9 O 0.0 4.5046 0.0 0
M  V30 10 C 2.6011 4.4928 0.0 0
M  V30 11 C 3.9016 2.2464 0.0 0
M  V30 12 O -5.2022 1.5015 0.0 0
M  V30 13 C 0.0 6.0062 0.0 0
M  V30 14 C 3.9016 3.7479 0.0 0
M  V30 15 C -6.5027 2.2464 0.0 0
M  V30 16 C -1.3005 6.7628 0.0 0
M  V30 17 C -7.8033 1.5015 0.0 0
M  V30 18 C -1.3005 8.2644 0.0 0
M  V30 19 C -2.6011 6.018 0.0 0
M  V30 20 C -2.6011 9.0093 0.0 0
M  V30 21 C -3.9016 6.7628 0.0 0
M  V30 22 C -3.9016 8.2644 0.0 0
M  V30 END ATOM
M  V30 BEGIN BOND
M  V30 1 2 1 2
M  V30 2 1 2 3
M  V30 3 1 2 4
M  V30 4 1 3 5
M  V30 5 2 4 6
M  V30 6 1 4 7
M  V30 7 1 5 8
M  V30 8 1 6 9
M  V30 9 1 6 10
M  V30 10 2 7 11
M  V30 11 1 8 12
M  V30 12 1 9 13
M  V30 13 2 10 14
M  V30 14 1 12 15
M  V30 15 1 13 16
M  V30 16 1 15 17
M  V30 17 2 16 18
M  V30 18 1 16 19
M  V30 19 1 18 20
M  V30 20 2 19 21
M  V30 21 2 20 22
M  V30 22 1 11 14
M  V30 23 1 21 22
M  V30 END BOND
M  V30 END CTAB
M  END
>  <Molecule Name>
2-Benzyloxybenzoic acid, ethoxyethyl ester

>  <Activity Label>
0

>  <SMILES>
CCOCCOC(c(cccc1)c1OCc1ccccc1)=O

>  <Molecular Formula>
C18H20O4

>  <InChIKey>
DTULUIXJYVEQCW-UHFFFAOYSA-N

>  <Repellency>
Inactive

>  <Reference DOI>
10.3390/toxics11100837

>  <Target Organism>
Not applied

$$$$
Compound 1110
Actelion Java MolfileCreator 2.0

  0  0  0  0  0  0              0 V3000
M  V30 BEGIN CTAB
M  V30 COUNTS 22 23 0 0 0
M  V30 BEGIN ATOM
M  V30 1 O 0.0 0.0 0.0 0
M  V30 2 C 0.0 1.4996 0.0 0
M  V30 3 O 1.2988 2.2435 0.0 0
M  V30 4 C -1.2988 2.2435 0.0 0
M  V30 5 C 2.5977 1.4878 0.0 0
M  V30 6 C -2.5977 1.4878 0.0 0
M  V30 7 C 3.8966 2.2317 0.0 0
M  V30 8 C -2.5977 -0.0118 0.0 0
M  V30 9 C 5.1955 1.476 0.0 0
M  V30 10 C 3.8966 3.7313 0.0 0
M  V30 11 O -1.2988 -0.7675 0.0 0
M  V30 12 O -3.8966 -0.7557 0.0 0
M  V30 13 C 6.4944 2.2317 0.0 0
M  V30 14 C 5.1955 4.487 0.0 0
M  V30 15 C -3.8966 -2.2553 0.0 0
M  V30 16 C 6.4944 3.7313 0.0 0
M  V30 17 C -5.1955 -3.011 0.0 0
M  V30 18 C -5.1955 -4.5107 0.0 0
M  V30 19 C -6.4944 -2.2671 0.0 0
M  V30 20 C -6.4944 -5.2664 0.0 0
M  V30 21 C -7.7933 -3.0228 0.0 0
M  V30 22 C -7.7933 -4.5107 0.0 0
M  V30 END ATOM
M  V30 BEGIN BOND
M  V30 1 2 1 2
M  V30 2 1 2 3
M  V30 3 1 2 4
M  V30 4 1 3 5
M  V30 5 2 4 6
M  V30 6 1 5 7
M  V30 7 1 6 8
M  V30 8 2 7 9
M  V30 9 1 7 10
M  V30 10 2 8 11
M  V30 11 1 8 12
M  V30 12 1 9 13
M  V30 13 2 10 14
M  V30 14 1 12 15
M  V30 15 2 13 16
M  V30 16 1 15 17
M  V30 17 2 17 18
M  V30 18 1 17 19
M  V30 19 1 18 20
M  V30 20 2 19 21
M  V30 21 2 20 22
M  V30 22 1 14 16
M  V30 23 1 21 22
M  V30 END BOND
M  V30 END CTAB
M  END
>  <Molecule Name>
Maleic acid, dibenzyl ester

>  <Activity Label>
0

>  <SMILES>
O=C(/C=C\C(OCc1ccccc1)=O)OCc1ccccc1

>  <Molecular Formula>
C18H16O4

>  <InChIKey>
CPZVJYPXOWWFSW-QXMHVHEDSA-N

>  <Repellency>
Inactive

>  <Reference DOI>
10.3390/toxics11100837

>  <Target Organism>
Not applied

$$$$
Compound 1111
Actelion Java MolfileCreator 2.0

  0  0  0  0  0  0              0 V3000
M  V30 BEGIN CTAB
M  V30 COUNTS 22 23 0 0 0
M  V30 BEGIN ATOM
M  V30 1 O 0.0 0.0 0.0 0
M  V30 2 C 0.0 1.5005 0.0 0
M  V30 3 O -1.2996 2.2448 0.0 0
M  V30 4 C 1.2996 2.2448 0.0 0
M  V30 5 C -2.5993 1.5005 0.0 0
M  V30 6 C 2.5993 1.5005 0.0 0
M  V30 7 C -3.8989 2.2566 0.0 0
M  V30 8 C -2.5993 0.0 0.0 0
M  V30 9 C 3.8989 2.2448 0.0 0
M  V30 10 C -5.1986 1.5123 0.0 0
M  V30 11 C -3.8989 -0.7443 0.0 0
M  V30 12 C 5.1986 1.5005 0.0 0
M  V30 13 C -5.1986 0.0118 0.0 0
M  V30 14 C 6.4983 2.2448 0.0 0
M  V30 15 O 6.4983 3.7453 0.0 0
M  V30 16 O 7.7979 1.5005 0.0 0
M  V30 17 C 9.0976 2.2448 0.0 0
M  V30 18 C 10.3973 1.4887 0.0 0
M  V30 19 C 9.0976 3.7453 0.0 0
M  V30 20 C 11.6969 2.233 0.0 0
M  V30 21 C 10.3973 4.5015 0.0 0
M  V30 22 C 11.6969 3.7335 0.0 0
M  V30 END ATOM
M  V30 BEGIN BOND
M  V30 1 2 1 2
M  V30 2 1 2 3
M  V30 3 1 2 4
M  V30 4 1 3 5
M  V30 5 1 4 6
M  V30 6 1 5 7
M  V30 7 1 5 8
M  V30 8 1 6 9
M  V30 9 1 7 10
M  V30 10 1 8 11
M  V30 11 1 9 12
M  V30 12 1 10 13
M  V30 13 1 12 14
M  V30 14 2 14 15
M  V30 15 1 14 16
M  V30 16 1 16 17
M  V30 17 1 17 18
M  V30 18 1 17 19
M  V30 19 1 18 20
M  V30 20 1 19 21
M  V30 21 1 20 22
M  V30 22 1 11 13
M  V30 23 1 21 22
M  V30 END BOND
M  V30 END CTAB
M  END
>  <Molecule Name>
Adipic acid, dicyclohexyl ester

>  <Activity Label>
0

>  <SMILES>
O=C(CCCCC(OC1CCCCC1)=O)OC1CCCCC1

>  <Molecular Formula>
C18H30O4

>  <InChIKey>
UTGUHFOMNVLJSL-UHFFFAOYSA-N

>  <Repellency>
Inactive

>  <Reference DOI>
10.3390/toxics11100837

>  <Target Organism>
Not applied

$$$$
Compound 1112
Actelion Java MolfileCreator 2.0

  0  0  0  0  0  0              0 V3000
M  V30 BEGIN CTAB
M  V30 COUNTS 22 23 0 0 0
M  V30 BEGIN ATOM
M  V30 1 O 0.0 0.0 0.0 0
M  V30 2 C 1.299 -0.7557 0.0 0
M  V30 3 O 2.598 -0.0118 0.0 0
M  V30 4 C 1.299 -2.2555 0.0 0
M  V30 5 C 3.897 -0.7675 0.0 0
M  V30 6 C 0.0 -3.0113 0.0 0
M  V30 7 C 2.598 -2.9995 0.0 0
M  V30 8 C 5.196 -0.0236 0.0 0
M  V30 9 C 3.897 -2.2673 0.0 0
M  V30 10 C -1.299 -2.2673 0.0 0
M  V30 11 C 0.0 -4.5111 0.0 0
M  V30 12 C 2.598 -4.4993 0.0 0
M  V30 13 C 6.495 -0.7794 0.0 0
M  V30 14 C 5.196 -3.0231 0.0 0
M  V30 15 O -2.598 -3.0113 0.0 0
M  V30 16 O -1.299 -0.7675 0.0 0
M  V30 17 C 1.299 -5.255 0.0 0
M  V30 18 C 6.495 -2.2791 0.0 0
M  V30 19 C -2.598 -0.0118 0.0 0
M  V30 20 C -2.598 1.4879 0.0 0
M  V30 21 C -3.897 2.2437 0.0 0
M  V30 22 C -3.897 3.7435 0.0 0
M  V30 END ATOM
M  V30 BEGIN BOND
M  V30 1 2 1 2
M  V30 2 1 2 3
M  V30 3 1 2 4
M  V30 4 1 3 5
M  V30 5 2 4 6
M  V30 6 1 4 7
M  V30 7 1 5 8
M  V30 8 1 5 9
M  V30 9 1 6 10
M  V30 10 1 6 11
M  V30 11 2 7 12
M  V30 12 1 8 13
M  V30 13 1 9 14
M  V30 14 2 10 15
M  V30 15 1 10 16
M  V30 16 2 11 17
M  V30 17 1 13 18
M  V30 18 1 16 19
M  V30 19 1 19 20
M  V30 20 1 20 21
M  V30 21 1 21 22
M  V30 22 1 12 17
M  V30 23 1 14 18
M  V30 END BOND
M  V30 END CTAB
M  END
>  <Molecule Name>
Phthalic acid butyl cyclohexyl ester

>  <Activity Label>
0

>  <SMILES>
CCCCOC(c(cccc1)c1C(OC1CCCCC1)=O)=O

>  <Molecular Formula>
C18H24O4

>  <InChIKey>
BHKLONWXRPJNAE-UHFFFAOYSA-N

>  <Repellency>
Inactive

>  <Reference DOI>
10.3390/toxics11100837

>  <Target Organism>
Not applied

$$$$
Compound 1113
Actelion Java MolfileCreator 2.0

  0  0  0  0  0  0              0 V3000
M  V30 BEGIN CTAB
M  V30 COUNTS 22 23 0 0 0
M  V30 BEGIN ATOM
M  V30 1 O 0.0 0.0 0.0 0
M  V30 2 C -1.3001 0.7564 0.0 0
M  V30 3 O -2.6002 0.0118 0.0 0
M  V30 4 C -1.3001 2.2574 0.0 0
M  V30 5 C -2.6002 -1.4892 0.0 0
M  V30 6 C -2.6002 3.0021 0.0 0
M  V30 7 C 0.0 3.0021 0.0 0
M  V30 8 C -3.9003 -2.2338 0.0 0
M  V30 9 C -1.3001 -2.2456 0.0 0
M  V30 10 C -3.9003 2.2574 0.0 0
M  V30 11 C -2.6002 4.5031 0.0 0
M  V30 12 C 0.0 4.5031 0.0 0
M  V30 13 C -3.9003 -3.7349 0.0 0
M  V30 14 C -1.3001 -3.7467 0.0 0
M  V30 15 O -3.9003 0.7564 0.0 0
M  V30 16 O -5.2004 3.0021 0.0 0
M  V30 17 C -1.3001 5.2477 0.0 0
M  V30 18 C -2.6002 -4.4913 0.0 0
M  V30 19 C -6.5006 2.2574 0.0 0
M  V30 20 C -7.8007 3.0021 0.0 0
M  V30 21 C -7.8007 4.5031 0.0 0
M  V30 22 C -9.1008 2.2574 0.0 0
M  V30 END ATOM
M  V30 BEGIN BOND
M  V30 1 2 1 2
M  V30 2 1 2 3
M  V30 3 1 2 4
M  V30 4 1 3 5
M  V30 5 2 4 6
M  V30 6 1 4 7
M  V30 7 1 5 8
M  V30 8 1 5 9
M  V30 9 1 6 10
M  V30 10 1 6 11
M  V30 11 2 7 12
M  V30 12 1 8 13
M  V30 13 1 9 14
M  V30 14 2 10 15
M  V30 15 1 10 16
M  V30 16 2 11 17
M  V30 17 1 13 18
M  V30 18 1 16 19
M  V30 19 1 19 20
M  V30 20 1 20 21
M  V30 21 1 20 22
M  V30 22 1 12 17
M  V30 23 1 14 18
M  V30 END BOND
M  V30 END CTAB
M  END
>  <Molecule Name>
Phthalic acid, iso-butyl cyclohexyl ester

>  <Activity Label>
0

>  <SMILES>
CC(C)COC(c(cccc1)c1C(OC1CCCCC1)=O)=O

>  <Molecular Formula>
C18H24O4

>  <InChIKey>
ACVHLWLOORYJEE-UHFFFAOYSA-N

>  <Repellency>
Inactive

>  <Reference DOI>
10.3390/toxics11100837

>  <Target Organism>
Not applied

$$$$
Compound 1114
Actelion Java MolfileCreator 2.0

  0  0  0  0  0  0              0 V3000
M  V30 BEGIN CTAB
M  V30 COUNTS 22 23 0 0 0
M  V30 BEGIN ATOM
M  V30 1 O 0.0 0.0 0.0 0
M  V30 2 C 0.0 1.5011 0.0 0
M  V30 3 O -1.3002 2.2458 0.0 0
M  V30 4 C 1.3002 2.2458 0.0 0
M  V30 5 C -2.6004 1.5011 0.0 0
M  V30 6 C -2.6004 3.0023 0.0 0
M  V30 7 C -3.9007 0.7565 0.0 0
M  V30 8 C -1.3002 0.7565 0.0 0
M  V30 9 C -2.6004 4.5035 0.0 0
M  V30 10 C -3.9007 -0.7446 0.0 0
M  V30 11 C -1.3002 -0.7446 0.0 0
M  V30 12 C -2.6004 6.0047 0.0 0
M  V30 13 C -2.6004 -1.5011 0.0 0
M  V30 14 O -3.9007 5.26 0.0 0
M  V30 15 C -1.3002 6.7494 0.0 0
M  V30 16 C -3.9007 6.7494 0.0 0
M  V30 17 C -5.2009 6.0047 0.0 0
M  V30 18 C -1.3002 8.2506 0.0 0
M  V30 19 C -3.9007 8.2506 0.0 0
M  V30 20 O -6.5012 5.26 0.0 0
M  V30 21 C -5.2009 7.5059 0.0 0
M  V30 22 C -2.6004 8.9953 0.0 0
M  V30 END ATOM
M  V30 BEGIN BOND
M  V30 1 2 1 2
M  V30 2 1 2 3
M  V30 3 1 2 4
M  V30 4 1 3 5
M  V30 5 1 5 6
M  V30 6 1 5 7
M  V30 7 1 5 8
M  V30 8 3 6 9
M  V30 9 1 7 10
M  V30 10 1 8 11
M  V30 11 1 9 12
M  V30 12 1 10 13
M  V30 13 1 12 14
M  V30 14 1 12 15
M  V30 15 1 12 16
M  V30 16 1 14 17
M  V30 17 1 15 18
M  V30 18 1 16 19
M  V30 19 2 17 20
M  V30 20 1 17 21
M  V30 21 1 18 22
M  V30 22 1 11 13
M  V30 23 1 19 22
M  V30 END BOND
M  V30 END CTAB
M  END
>  <Molecule Name>
Di (1-acetoxycyclohexyl)acetylene

>  <Activity Label>
0

>  <SMILES>
CC(OC1(CCCCC1)C#CC1(CCCCC1)OC(C)=O)=O

>  <Molecular Formula>
C18H26O4

>  <InChIKey>
SQCRIVVFXWUZQH-UHFFFAOYSA-N

>  <Repellency>
Inactive

>  <Reference DOI>
10.3390/toxics11100837

>  <Target Organism>
Not applied

$$$$
Compound 1115
Actelion Java MolfileCreator 2.0

  0  0  0  0  0  0              0 V3000
M  V30 BEGIN CTAB
M  V30 COUNTS 22 23 0 0 0
M  V30 BEGIN ATOM
M  V30 1 O 0.0 0.0 0.0 0
M  V30 2 C -1.2983 0.7435 0.0 0
M  V30 3 C 1.2983 0.7435 0.0 0
M  V30 4 C -2.5966 -0.0118 0.0 0
M  V30 5 C 2.5966 -0.0118 0.0 0
M  V30 6 C -2.5966 -1.5107 0.0 0
M  V30 7 C -3.8949 0.7435 0.0 0
M  V30 8 C 3.8949 0.7317 0.0 0
M  V30 9 C 2.5966 -1.5107 0.0 0
M  V30 10 C -3.8949 -2.2543 0.0 0
M  V30 11 C -1.2983 -2.2661 0.0 0
M  V30 12 C -5.1933 0.0 0.0 0
M  V30 13 C -5.1933 -1.5107 0.0 0
M  V30 14 O -1.2983 -3.7651 0.0 0
M  V30 15 C -6.4916 0.7553 0.0 0
M  V30 16 C -6.4916 -2.2543 0.0 0
M  V30 17 C 0.0 -4.5205 0.0 0
M  V30 18 C -7.7899 0.0 0.0 0
M  V30 19 C -7.7899 -1.4989 0.0 0
M  V30 20 C 0.0 -6.0195 0.0 0
M  V30 21 C -1.2983 -6.7749 0.0 0
M  V30 22 C 1.2983 -6.7749 0.0 0
M  V30 END ATOM
M  V30 BEGIN BOND
M  V30 1 1 1 2
M  V30 2 1 1 3
M  V30 3 1 2 4
M  V30 4 1 3 5
M  V30 5 1 4 6
M  V30 6 2 4 7
M  V30 7 1 5 8
M  V30 8 1 5 9
M  V30 9 2 6 10
M  V30 10 1 6 11
M  V30 11 1 7 12
M  V30 12 1 10 13
M  V30 13 1 11 14
M  V30 14 1 12 15
M  V30 15 1 13 16
M  V30 16 1 14 17
M  V30 17 2 15 18
M  V30 18 2 16 19
M  V30 19 1 17 20
M  V30 20 1 20 21
M  V30 21 1 20 22
M  V30 22 2 12 13
M  V30 23 1 18 19
M  V30 END BOND
M  V30 END CTAB
M  END
>  <Molecule Name>
2,3-Bis-(iso-butoxymethyl)naphthalene

>  <Activity Label>
0

>  <SMILES>
CC(C)COCc1cc(cccc2)c2cc1COCC(C)C

>  <Molecular Formula>
C20H28O2

>  <InChIKey>
QSHFVUJIPJVCIQ-UHFFFAOYSA-N

>  <Repellency>
Inactive

>  <Reference DOI>
10.3390/toxics11100837

>  <Target Organism>
Not applied

$$$$
Compound 1116
Actelion Java MolfileCreator 2.0

  0  0  0  0  0  0              0 V3000
M  V30 BEGIN CTAB
M  V30 COUNTS 22 23 0 0 0
M  V30 BEGIN ATOM
M  V30 1 O 0.0 0.0 0.0 0
M  V30 2 C 0.0 -1.5003 0.0 0
M  V30 3 O -1.2994 -2.2563 0.0 0
M  V30 4 C 1.2994 -2.2563 0.0 0
M  V30 5 C -2.5989 -1.5121 0.0 0
M  V30 6 C 2.5989 -1.5121 0.0 0
M  V30 7 C -3.8984 -2.2682 0.0 0
M  V30 8 C 3.8984 -2.2682 0.0 0
M  V30 9 O -4.052 -3.7567 0.0 0
M  V30 10 C -5.2688 -1.6539 0.0 0
M  V30 11 C 5.1979 -1.5239 0.0 0
M  V30 12 C -5.5169 -4.0638 0.0 0
M  V30 13 C -6.273 -2.7643 0.0 0
M  V30 14 C 6.4974 -2.28 0.0 0
M  V30 15 O 6.4974 -3.7803 0.0 0
M  V30 16 O 7.7969 -1.5357 0.0 0
M  V30 17 C 9.0964 -2.2918 0.0 0
M  V30 18 C 10.3959 -1.5475 0.0 0
M  V30 19 O 10.5495 -0.059 0.0 0
M  V30 20 C 11.7663 -2.1618 0.0 0
M  V30 21 C 12.0144 0.248 0.0 0
M  V30 22 C 12.7704 -1.0514 0.0 0
M  V30 END ATOM
M  V30 BEGIN BOND
M  V30 1 2 1 2
M  V30 2 1 2 3
M  V30 3 1 2 4
M  V30 4 1 3 5
M  V30 5 1 4 6
M  V30 6 1 5 7
M  V30 7 1 6 8
M  V30 8 1 7 9
M  V30 9 1 7 10
M  V30 10 1 8 11
M  V30 11 1 9 12
M  V30 12 1 10 13
M  V30 13 1 11 14
M  V30 14 2 14 15
M  V30 15 1 14 16
M  V30 16 1 16 17
M  V30 17 1 17 18
M  V30 18 1 18 19
M  V30 19 1 18 20
M  V30 20 1 19 21
M  V30 21 1 20 22
M  V30 22 1 12 13
M  V30 23 1 21 22
M  V30 END BOND
M  V30 END CTAB
M  END
>  <Molecule Name>
Adipic acid, ditetrahydrofurfuryl ester

>  <Activity Label>
0

>  <SMILES>
O=C(CCCCC(OCC1OCCC1)=O)OCC1OCCC1

>  <Molecular Formula>
C16H26O6

>  <InChIKey>
DMNQTEVDCGAATA-UHFFFAOYSA-N

>  <Repellency>
Inactive

>  <Reference DOI>
10.3390/toxics11100837

>  <Target Organism>
Not applied

$$$$
Compound 1117
Actelion Java MolfileCreator 2.0

  0  0  0  0  0  0              0 V3000
M  V30 BEGIN CTAB
M  V30 COUNTS 22 23 0 0 0
M  V30 BEGIN ATOM
M  V30 1 O 0.0 0.0 0.0 0
M  V30 2 C 1.2989 0.7439 0.0 0
M  V30 3 C -1.2989 0.7439 0.0 0
M  V30 4 C 2.5979 -0.0118 0.0 0
M  V30 5 C 1.2989 2.2437 0.0 0
M  V30 6 C -2.5979 -0.0118 0.0 0 CFG=2
M  V30 7 C 2.5979 -1.5115 0.0 0
M  V30 8 C 3.8969 0.7321 0.0 0
M  V30 9 C 2.5979 2.9876 0.0 0
M  V30 10 C 0.0 2.9995 0.0 0
M  V30 11 C -3.8969 0.7321 0.0 0
M  V30 12 C -2.5979 -1.5115 0.0 0
M  V30 13 C 3.8969 -2.2673 0.0 0
M  V30 14 C 5.1959 -0.0118 0.0 0
M  V30 15 C 2.5979 4.4874 0.0 0
M  V30 16 C 0.0 4.4992 0.0 0
M  V30 17 C -5.1959 -0.0236 0.0 0
M  V30 18 C -3.8969 -2.2673 0.0 0
M  V30 19 C 5.1959 -1.5115 0.0 0
M  V30 20 C 1.2989 5.2432 0.0 0
M  V30 21 C -6.4949 0.7203 0.0 0
M  V30 22 C -7.7939 -0.0354 0.0 0
M  V30 END ATOM
M  V30 BEGIN BOND
M  V30 1 1 1 2
M  V30 2 1 1 3
M  V30 3 1 2 4
M  V30 4 1 2 5
M  V30 5 1 6 3 CFG=1
M  V30 6 2 4 7
M  V30 7 1 4 8
M  V30 8 2 5 9
M  V30 9 1 5 10
M  V30 10 1 6 11
M  V30 11 1 6 12
M  V30 12 1 7 13
M  V30 13 2 8 14
M  V30 14 1 9 15
M  V30 15 2 10 16
M  V30 16 1 11 17
M  V30 17 1 12 18
M  V30 18 2 13 19
M  V30 19 2 15 20
M  V30 20 1 17 21
M  V30 21 1 21 22
M  V30 22 1 14 19
M  V30 23 1 16 20
M  V30 END BOND
M  V30 BEGIN COLLECTION
M  V30 MDLV30/STERAC1 ATOMS=(1 6)
M  V30 END COLLECTION
M  V30 END CTAB
M  END
>  <Molecule Name>
Benzhydryl 2-ethylhexyl ether

>  <Activity Label>
0

>  <SMILES>
CCCCC(CC)COC(c1ccccc1)c1ccccc1

>  <Molecular Formula>
C21H28O

>  <InChIKey>
MGUIRRUXEYCQEJ-UHFFFAOYSA-N

>  <Repellency>
Inactive

>  <Reference DOI>
10.3390/toxics11100837

>  <Target Organism>
Not applied

$$$$
Compound 1118
Actelion Java MolfileCreator 2.0

  0  0  0  0  0  0              0 V3000
M  V30 BEGIN CTAB
M  V30 COUNTS 22 23 0 0 0
M  V30 BEGIN ATOM
M  V30 1 O 0.0 0.0 0.0 0
M  V30 2 C 1.3002 -0.7564 0.0 0
M  V30 3 C -1.3002 -0.7446 0.0 0
M  V30 4 O 1.3002 -2.2576 0.0 0
M  V30 5 C 2.6004 -0.0118 0.0 0
M  V30 6 C -1.3002 -2.2458 0.0 0
M  V30 7 C -2.6004 0.0118 0.0 0
M  V30 8 C 0.0 -3.0023 0.0 0
M  V30 9 C 2.6004 1.4893 0.0 0
M  V30 10 C 3.9006 -0.7564 0.0 0
M  V30 11 C -2.6004 -2.9905 0.0 0
M  V30 12 C -2.6004 1.5129 0.0 0
M  V30 13 C 3.9006 2.234 0.0 0
M  V30 14 C 5.2009 -0.0118 0.0 0
M  V30 15 C -2.6004 -4.4917 0.0 0
M  V30 16 C -3.9006 2.2694 0.0 0
M  V30 17 C 5.2009 1.4775 0.0 0
M  V30 18 O 6.5011 2.2222 0.0 0
M  V30 19 C 7.8013 1.4775 0.0 0
M  V30 20 C 9.1016 2.2222 0.0 0
M  V30 21 C 9.1016 3.7233 0.0 0
M  V30 22 C 10.4018 1.4775 0.0 0
M  V30 END ATOM
M  V30 BEGIN BOND
M  V30 1 1 1 2
M  V30 2 1 1 3
M  V30 3 1 2 4
M  V30 4 1 2 5
M  V30 5 1 3 6
M  V30 6 1 3 7
M  V30 7 1 4 8
M  V30 8 2 5 9
M  V30 9 1 5 10
M  V30 10 1 6 11
M  V30 11 1 7 12
M  V30 12 1 9 13
M  V30 13 2 10 14
M  V30 14 1 11 15
M  V30 15 1 12 16
M  V30 16 2 13 17
M  V30 17 1 17 18
M  V30 18 1 18 19
M  V30 19 1 19 20
M  V30 20 2 20 21
M  V30 21 1 20 22
M  V30 22 1 6 8
M  V30 23 1 14 17
M  V30 END BOND
M  V30 END CTAB
M  END
>  <Molecule Name>
2-(p-Methallyloxyphenyl)-5-ethyl-6-n-propyl-1,3-dioxane

>  <Activity Label>
0

>  <SMILES>
CCCC1OC(c(cc2)ccc2OCC(C)=C)OCC1CC

>  <Molecular Formula>
C19H28O3

>  <InChIKey>
MEGJGSNDKDGOFZ-UHFFFAOYSA-N

>  <Repellency>
Inactive

>  <Reference DOI>
10.3390/toxics11100837

>  <Target Organism>
Not applied

$$$$
Compound 1119
Actelion Java MolfileCreator 2.0

  0  0  0  0  0  0              0 V3000
M  V30 BEGIN CTAB
M  V30 COUNTS 22 23 0 0 0
M  V30 BEGIN ATOM
M  V30 1 O 0.0 0.0 0.0 0
M  V30 2 C 1.4281 0.4603 0.0 0
M  V30 3 N 2.6437 -0.4248 0.0 0
M  V30 4 C 1.8884 1.8884 0.0 0
M  V30 5 C 3.8594 0.4603 0.0 0
M  V30 6 C 2.6437 -1.9238 0.0 0
M  V30 7 C 3.3873 1.8884 0.0 0
M  V30 8 C 1.1448 3.1867 0.0 0
M  V30 9 O 5.2875 0.0 0.0 0
M  V30 10 C 1.3454 -2.6791 0.0 0
M  V30 11 C 3.942 -2.6791 0.0 0
M  V30 12 C 4.1427 3.1867 0.0 0
M  V30 13 C 1.9002 4.4849 0.0 0
M  V30 14 C 0.0472 -1.9356 0.0 0
M  V30 15 C 3.3991 4.4849 0.0 0
M  V30 16 C -1.251 -2.6909 0.0 0
M  V30 17 C -2.5493 -1.9474 0.0 0
M  V30 18 C -1.251 -4.1899 0.0 0
M  V30 19 C -3.8476 -2.7027 0.0 0
M  V30 20 C 0.0472 -4.9334 0.0 0
M  V30 21 C -5.1459 -1.9592 0.0 0
M  V30 22 C -6.4442 -2.7146 0.0 0
M  V30 END ATOM
M  V30 BEGIN BOND
M  V30 1 2 1 2
M  V30 2 1 2 3
M  V30 3 1 2 4
M  V30 4 1 3 5
M  V30 5 1 3 6
M  V30 6 2 4 7
M  V30 7 1 4 8
M  V30 8 2 5 9
M  V30 9 1 6 10
M  V30 10 1 6 11
M  V30 11 1 7 12
M  V30 12 2 8 13
M  V30 13 1 10 14
M  V30 14 2 12 15
M  V30 15 1 14 16
M  V30 16 1 16 17
M  V30 17 1 16 18
M  V30 18 1 17 19
M  V30 19 1 18 20
M  V30 20 1 19 21
M  V30 21 1 21 22
M  V30 22 1 5 7
M  V30 23 1 13 15
M  V30 END BOND
M  V30 END CTAB
M  END
>  <Molecule Name>
N-(1-Methyl-4-ethyloctyl)phthalimide

>  <Activity Label>
0

>  <SMILES>
CCCCC(CC)CCC(C)N(C(c1c2cccc1)=O)C2=O

>  <Molecular Formula>
C19H27NO2

>  <InChIKey>
QYWVKQKXWCXNFD-UHFFFAOYSA-N

>  <Repellency>
Inactive

>  <Reference DOI>
10.3390/toxics11100837

>  <Target Organism>
Not applied

$$$$
Compound 1120
Actelion Java MolfileCreator 2.0

  0  0  0  0  0  0              0 V3000
M  V30 BEGIN CTAB
M  V30 COUNTS 22 23 0 0 0
M  V30 BEGIN ATOM
M  V30 1 Cl 0.0 0.0 0.0 0
M  V30 2 C -1.2997 0.7562 0.0 0
M  V30 3 C -1.2997 2.2568 0.0 0
M  V30 4 C -2.5995 0.0118 0.0 0
M  V30 5 C -2.5995 3.0131 0.0 0
M  V30 6 C -3.8993 0.7562 0.0 0
M  V30 7 C -3.8993 2.2686 0.0 0
M  V30 8 O -5.199 3.0131 0.0 0
M  V30 9 C -6.4988 2.2686 0.0 0
M  V30 10 C -7.7986 3.0131 0.0 0
M  V30 11 N -9.0984 2.2686 0.0 0
M  V30 12 C -10.3981 3.0131 0.0 0
M  V30 13 C -9.0984 0.768 0.0 0
M  V30 14 C -11.6979 2.2686 0.0 0
M  V30 15 O -12.9977 3.0131 0.0 0
M  V30 16 C -14.2974 2.2686 0.0 0
M  V30 17 C -15.5972 3.0249 0.0 0
M  V30 18 C -14.2974 0.768 0.0 0
M  V30 19 C -16.897 2.2805 0.0 0
M  V30 20 C -15.5972 0.0236 0.0 0
M  V30 21 C -16.897 0.7798 0.0 0
M  V30 22 Cl -18.1968 0.0354 0.0 0
M  V30 END ATOM
M  V30 BEGIN BOND
M  V30 1 1 1 2
M  V30 2 2 2 3
M  V30 3 1 2 4
M  V30 4 1 3 5
M  V30 5 2 4 6
M  V30 6 2 5 7
M  V30 7 1 7 8
M  V30 8 1 8 9
M  V30 9 1 9 10
M  V30 10 1 10 11
M  V30 11 1 11 12
M  V30 12 1 11 13
M  V30 13 1 12 14
M  V30 14 1 14 15
M  V30 15 1 15 16
M  V30 16 2 16 17
M  V30 17 1 16 18
M  V30 18 1 17 19
M  V30 19 2 18 20
M  V30 20 2 19 21
M  V30 21 1 21 22
M  V30 22 1 6 7
M  V30 23 1 20 21
M  V30 END BOND
M  V30 END CTAB
M  END
>  <Molecule Name>
N,N-Bis-(2-(p-chlorophenoxy) ethyl)methylamine

>  <Activity Label>
0

>  <SMILES>
CN(CCOc(cc1)ccc1Cl)CCOc(cc1)ccc1Cl

>  <Molecular Formula>
C17H19NO2Cl2

>  <InChIKey>
YIEIQLLNLGZWJS-UHFFFAOYSA-N

>  <Repellency>
Inactive

>  <Reference DOI>
10.3390/toxics11100837

>  <Target Organism>
Not applied

$$$$
Compound 1121
Actelion Java MolfileCreator 2.0

  0  0  0  0  0  0              0 V3000
M  V30 BEGIN CTAB
M  V30 COUNTS 22 23 0 0 0
M  V30 BEGIN ATOM
M  V30 1 O 0.0 0.0 0.0 0
M  V30 2 C 0.0 1.5015 0.0 0
M  V30 3 N 1.3005 2.2464 0.0 0
M  V30 4 C -1.3005 2.2464 0.0 0
M  V30 5 C 1.3005 3.7479 0.0 0
M  V30 6 C 2.6011 1.5015 0.0 0
M  V30 7 C -2.6011 1.5015 0.0 0
M  V30 8 C 2.6011 4.4928 0.0 0
M  V30 9 C 0.0 4.5046 0.0 0
M  V30 10 C 3.9016 2.2464 0.0 0
M  V30 11 C -3.9016 2.2464 0.0 0
M  V30 12 C 2.6011 5.9943 0.0 0
M  V30 13 C 0.0 6.0061 0.0 0
M  V30 14 C 5.2022 1.5015 0.0 0
M  V30 15 C -5.2022 1.5015 0.0 0
M  V30 16 C 1.3005 6.7392 0.0 0
M  V30 17 C 6.5027 2.2464 0.0 0
M  V30 18 C -6.5027 2.2582 0.0 0
M  V30 19 C -5.2022 0.0 0.0 0
M  V30 20 C -7.8033 1.5133 0.0 0
M  V30 21 C -6.5027 -0.7448 0.0 0
M  V30 22 C -7.8033 0.0118 0.0 0
M  V30 END ATOM
M  V30 BEGIN BOND
M  V30 1 2 1 2
M  V30 2 1 2 3
M  V30 3 1 2 4
M  V30 4 1 3 5
M  V30 5 1 3 6
M  V30 6 1 4 7
M  V30 7 2 5 8
M  V30 8 1 5 9
M  V30 9 1 6 10
M  V30 10 1 7 11
M  V30 11 1 8 12
M  V30 12 2 9 13
M  V30 13 1 10 14
M  V30 14 1 11 15
M  V30 15 2 12 16
M  V30 16 1 14 17
M  V30 17 1 15 18
M  V30 18 1 15 19
M  V30 19 1 18 20
M  V30 20 1 19 21
M  V30 21 1 20 22
M  V30 22 1 13 16
M  V30 23 1 21 22
M  V30 END BOND
M  V30 END CTAB
M  END
>  <Molecule Name>
N-(n-Butyl)-N-phenyl-gamma-cyclohexylbutyramide

>  <Activity Label>
0

>  <SMILES>
CCCCN(C(CCCC1CCCCC1)=O)c1ccccc1

>  <Molecular Formula>
C20H31NO

>  <InChIKey>
KXKHUEPSQMZUJQ-UHFFFAOYSA-N

>  <Repellency>
Inactive

>  <Reference DOI>
10.3390/toxics11100837

>  <Target Organism>
Not applied

$$$$
Compound 1122
Actelion Java MolfileCreator 2.0

  0  0  0  0  0  0              0 V3000
M  V30 BEGIN CTAB
M  V30 COUNTS 23 24 0 0 0
M  V30 BEGIN ATOM
M  V30 1 O 0.0 0.0 0.0 0
M  V30 2 C 0.0 1.5016 0.0 0
M  V30 3 O -1.3006 2.2464 0.0 0
M  V30 4 C 1.3006 2.2464 0.0 0
M  V30 5 C -2.6012 1.5016 0.0 0
M  V30 6 C 1.3006 3.748 0.0 0
M  V30 7 C 2.6012 1.5016 0.0 0
M  V30 8 C -3.9018 2.2464 0.0 0
M  V30 9 O 0.0 4.4929 0.0 0
M  V30 10 C 2.6012 4.4929 0.0 0
M  V30 11 C 3.9018 2.2464 0.0 0
M  V30 12 O -5.2024 1.5016 0.0 0
M  V30 13 C 2.6012 5.9945 0.0 0
M  V30 14 C 3.9018 3.748 0.0 0
M  V30 15 C -6.503 2.2464 0.0 0
M  V30 16 C 3.9018 6.7394 0.0 0
M  V30 17 C 1.3006 6.7394 0.0 0
M  V30 18 C -7.8036 1.5016 0.0 0
M  V30 19 C 3.9018 8.241 0.0 0
M  V30 20 C 1.3006 8.241 0.0 0
M  V30 21 C -9.1042 2.2464 0.0 0
M  V30 22 C 2.6012 8.9978 0.0 0
M  V30 23 C -10.4048 1.5016 0.0 0
M  V30 END ATOM
M  V30 BEGIN BOND
M  V30 1 2 1 2
M  V30 2 1 2 3
M  V30 3 1 2 4
M  V30 4 1 3 5
M  V30 5 2 4 6
M  V30 6 1 4 7
M  V30 7 1 5 8
M  V30 8 1 6 9
M  V30 9 1 6 10
M  V30 10 2 7 11
M  V30 11 1 8 12
M  V30 12 1 10 13
M  V30 13 2 10 14
M  V30 14 1 12 15
M  V30 15 2 13 16
M  V30 16 1 13 17
M  V30 17 1 15 18
M  V30 18 1 16 19
M  V30 19 2 17 20
M  V30 20 1 18 21
M  V30 21 2 19 22
M  V30 22 1 21 23
M  V30 23 1 11 14
M  V30 24 1 20 22
M  V30 END BOND
M  V30 END CTAB
M  END
>  <Molecule Name>
3-Phenylsalicylic acid, beta-butoxyethyl ester

>  <Activity Label>
0

>  <SMILES>
CCCCOCCOC(c(cccc1-c2ccccc2)c1O)=O

>  <Molecular Formula>
C19H22O4

>  <InChIKey>
CHHDUIWQQKISRT-UHFFFAOYSA-N

>  <Repellency>
Inactive

>  <Reference DOI>
10.3390/toxics11100837

>  <Target Organism>
Not applied

$$$$
Compound 1123
Actelion Java MolfileCreator 2.0

  0  0  0  0  0  0              0 V3000
M  V30 BEGIN CTAB
M  V30 COUNTS 23 24 0 0 0
M  V30 BEGIN ATOM
M  V30 1 O 0.0 0.0 0.0 0
M  V30 2 C 1.3001 -0.7446 0.0 0
M  V30 3 C -1.3001 -0.7446 0.0 0
M  V30 4 C 2.6003 0.0 0.0 0
M  V30 5 C 1.3001 -2.2457 0.0 0
M  V30 6 C -2.6003 0.0 0.0 0
M  V30 7 C 3.9005 -0.7564 0.0 0
M  V30 8 C 2.6003 -2.9903 0.0 0
M  V30 9 C -3.9005 -0.7446 0.0 0
M  V30 10 C 3.9005 -2.2575 0.0 0
M  V30 11 C 5.2006 -3.014 0.0 0
M  V30 12 C 6.5008 -2.2693 0.0 0
M  V30 13 C 4.456 -4.3142 0.0 0
M  V30 14 C 5.9453 -4.3142 0.0 0
M  V30 15 C 7.801 -3.0258 0.0 0
M  V30 16 C 6.5008 -0.7682 0.0 0
M  V30 17 C 9.1012 -2.2812 0.0 0
M  V30 18 C 7.801 -0.0236 0.0 0
M  V30 19 C 9.1012 -0.7801 0.0 0
M  V30 20 O 10.4013 -0.0354 0.0 0
M  V30 21 C 10.4013 1.4656 0.0 0
M  V30 22 C 11.7015 2.2221 0.0 0
M  V30 23 C 11.7015 3.7232 0.0 0
M  V30 END ATOM
M  V30 BEGIN BOND
M  V30 1 1 1 2
M  V30 2 1 1 3
M  V30 3 2 2 4
M  V30 4 1 2 5
M  V30 5 1 3 6
M  V30 6 1 4 7
M  V30 7 2 5 8
M  V30 8 2 6 9
M  V30 9 2 7 10
M  V30 10 1 10 11
M  V30 11 1 11 12
M  V30 12 1 11 13
M  V30 13 1 11 14
M  V30 14 2 12 15
M  V30 15 1 12 16
M  V30 16 1 15 17
M  V30 17 2 16 18
M  V30 18 2 17 19
M  V30 19 1 19 20
M  V30 20 1 20 21
M  V30 21 1 21 22
M  V30 22 2 22 23
M  V30 23 1 8 10
M  V30 24 1 18 19
M  V30 END BOND
M  V30 END CTAB
M  END
>  <Molecule Name>
4, 4'-iso-Propylidene-bis-(allyloxybenzene)

>  <Activity Label>
0

>  <SMILES>
CC(C)(c(cc1)ccc1OCC=C)c(cc1)ccc1OCC=C

>  <Molecular Formula>
C21H24O2

>  <InChIKey>
SCZZNWQQCGSWSZ-UHFFFAOYSA-N

>  <Repellency>
Inactive

>  <Reference DOI>
10.3390/toxics11100837

>  <Target Organism>
Not applied

$$$$
Compound 1124
Actelion Java MolfileCreator 2.0

  0  0  0  0  0  0              0 V3000
M  V30 BEGIN CTAB
M  V30 COUNTS 23 24 0 0 0
M  V30 BEGIN ATOM
M  V30 1 O 0.0 0.0 0.0 0
M  V30 2 C -1.3004 -0.7448 0.0 0 CFG=2
M  V30 3 C 1.3004 -0.7448 0.0 0
M  V30 4 C -2.6009 0.0118 0.0 0
M  V30 5 C -1.3004 -2.2462 0.0 0
M  V30 6 C 2.6009 0.0 0.0 0
M  V30 7 C -3.9014 -0.7329 0.0 0
M  V30 8 C -2.6009 -2.991 0.0 0
M  V30 9 C 3.9014 -0.7448 0.0 0
M  V30 10 C -3.9014 -2.2344 0.0 0
M  V30 11 C -5.2019 0.0236 0.0 0
M  V30 12 C 5.2019 0.0 0.0 0
M  V30 13 C -5.2019 -2.9792 0.0 0
M  V30 14 C -6.5023 -0.7211 0.0 0
M  V30 15 C 6.5023 -0.7448 0.0 0
M  V30 16 C -6.5023 -2.2226 0.0 0
M  V30 17 C 7.8028 0.0 0.0 0
M  V30 18 C 9.1033 -0.7448 0.0 0
M  V30 19 C 10.4038 0.0 0.0 0
M  V30 20 C 11.7043 -0.7448 0.0 0
M  V30 21 C 13.0047 0.0 0.0 0
M  V30 22 C 14.3052 -0.7448 0.0 0
M  V30 23 C 15.6057 0.0 0.0 0
M  V30 END ATOM
M  V30 BEGIN BOND
M  V30 1 1 2 1 CFG=1
M  V30 2 1 1 3
M  V30 3 1 2 4
M  V30 4 1 2 5
M  V30 5 1 3 6
M  V30 6 1 4 7
M  V30 7 1 5 8
M  V30 8 1 6 9
M  V30 9 2 7 10
M  V30 10 1 7 11
M  V30 11 1 9 12
M  V30 12 1 10 13
M  V30 13 2 11 14
M  V30 14 1 12 15
M  V30 15 2 13 16
M  V30 16 1 15 17
M  V30 17 1 17 18
M  V30 18 1 18 19
M  V30 19 1 19 20
M  V30 20 1 20 21
M  V30 21 1 21 22
M  V30 22 1 22 23
M  V30 23 1 8 10
M  V30 24 1 14 16
M  V30 END BOND
M  V30 BEGIN COLLECTION
M  V30 MDLV30/STERAC1 ATOMS=(1 2)
M  V30 END COLLECTION
M  V30 END CTAB
M  END
>  <Molecule Name>
1,2,3,4-Tetrahydro-2-naphthyl dodecyl ether

>  <Activity Label>
0

>  <SMILES>
CCCCCCCCCCCCOC(CC1)Cc2c1cccc2

>  <Molecular Formula>
C22H36O

>  <InChIKey>
NXWSEXXSQZUILO-UHFFFAOYSA-N

>  <Repellency>
Inactive

>  <Reference DOI>
10.3390/toxics11100837

>  <Target Organism>
Not applied

$$$$
Compound 1125
Actelion Java MolfileCreator 2.0

  0  0  0  0  0  0              0 V3000
M  V30 BEGIN CTAB
M  V30 COUNTS 23 24 0 0 0
M  V30 BEGIN ATOM
M  V30 1 O 0.0 0.0 0.0 0
M  V30 2 C -1.2986 -0.7555 0.0 0
M  V30 3 C 1.2986 -0.7555 0.0 0
M  V30 4 C -1.2986 -2.2549 0.0 0
M  V30 5 C -2.5973 0.0 0.0 0
M  V30 6 C 2.5973 -0.0118 0.0 0
M  V30 7 C -2.5973 -2.9987 0.0 0
M  V30 8 C 0.0 -3.0105 0.0 0
M  V30 9 C -3.896 -0.7437 0.0 0
M  V30 10 C 3.896 -0.7673 0.0 0
M  V30 11 C -3.896 -2.2549 0.0 0
M  V30 12 C -2.5973 -4.4981 0.0 0
M  V30 13 C 0.0 -4.5099 0.0 0
M  V30 14 C 5.1946 -0.0236 0.0 0
M  V30 15 C -1.2986 -5.2537 0.0 0
M  V30 16 C 6.4933 -0.7792 0.0 0
M  V30 17 C 7.792 -0.0354 0.0 0
M  V30 18 C 9.0906 -0.791 0.0 0
M  V30 19 C 10.3893 -0.0472 0.0 0
M  V30 20 C 11.688 -0.8028 0.0 0
M  V30 21 C 12.9867 -0.059 0.0 0
M  V30 22 C 14.2853 -0.8146 0.0 0
M  V30 23 C 15.584 -0.0708 0.0 0
M  V30 END ATOM
M  V30 BEGIN BOND
M  V30 1 1 1 2
M  V30 2 1 1 3
M  V30 3 2 2 4
M  V30 4 1 2 5
M  V30 5 1 3 6
M  V30 6 1 4 7
M  V30 7 1 4 8
M  V30 8 2 5 9
M  V30 9 1 6 10
M  V30 10 2 7 11
M  V30 11 1 7 12
M  V30 12 1 8 13
M  V30 13 1 10 14
M  V30 14 1 12 15
M  V30 15 1 14 16
M  V30 16 1 16 17
M  V30 17 1 17 18
M  V30 18 1 18 19
M  V30 19 1 19 20
M  V30 20 1 20 21
M  V30 21 1 21 22
M  V30 22 1 22 23
M  V30 23 1 9 11
M  V30 24 1 13 15
M  V30 END BOND
M  V30 END CTAB
M  END
>  <Molecule Name>
5,6,7,8-Tetrahydro-1-naphthyl dodecyl ether

>  <Activity Label>
0

>  <SMILES>
CCCCCCCCCCCCOc1c(CCCC2)c2ccc1

>  <Molecular Formula>
C22H36O

>  <InChIKey>
RQWBRBHUAHZGQO-UHFFFAOYSA-N

>  <Repellency>
Inactive

>  <Reference DOI>
10.3390/toxics11100837

>  <Target Organism>
Not applied

$$$$
Compound 1126
Actelion Java MolfileCreator 2.0

  0  0  0  0  0  0              0 V3000
M  V30 BEGIN CTAB
M  V30 COUNTS 23 22 0 0 0
M  V30 BEGIN ATOM
M  V30 1 O 0.0 0.0 0.0 0
M  V30 2 C 1.2991 0.744 0.0 0
M  V30 3 O 2.5982 0.0 0.0 0
M  V30 4 C 1.2991 2.2439 0.0 0
M  V30 5 C 2.5982 -1.4998 0.0 0
M  V30 6 C 0.0 2.9879 0.0 0
M  V30 7 C 2.5982 2.9879 0.0 0 CFG=1
M  V30 8 C 3.8973 -2.2557 0.0 0
M  V30 9 O 0.0 4.4878 0.0 0
M  V30 10 O -1.2991 2.2321 0.0 0
M  V30 11 C 2.5982 4.4878 0.0 0
M  V30 12 C 3.8973 2.2321 0.0 0
M  V30 13 C -2.5982 2.9761 0.0 0
M  V30 14 O 3.8973 5.2318 0.0 0
M  V30 15 O 1.2991 5.2436 0.0 0
M  V30 16 C 5.1964 2.9761 0.0 0
M  V30 17 C -3.8973 2.2203 0.0 0
M  V30 18 C 1.2991 6.7435 0.0 0
M  V30 19 O 5.1964 4.476 0.0 0
M  V30 20 O 6.4955 2.2203 0.0 0
M  V30 21 C 0.0 7.4994 0.0 0
M  V30 22 C 7.7946 2.9643 0.0 0
M  V30 23 C 9.0937 2.2084 0.0 0
M  V30 END ATOM
M  V30 BEGIN BOND
M  V30 1 2 1 2
M  V30 2 1 2 3
M  V30 3 1 2 4
M  V30 4 1 3 5
M  V30 5 1 4 6
M  V30 6 1 4 7
M  V30 7 1 5 8
M  V30 8 2 6 9
M  V30 9 1 6 10
M  V30 10 1 7 11
M  V30 11 1 7 12 CFG=1
M  V30 12 1 10 13
M  V30 13 2 11 14
M  V30 14 1 11 15
M  V30 15 1 12 16
M  V30 16 1 13 17
M  V30 17 1 15 18
M  V30 18 2 16 19
M  V30 19 1 16 20
M  V30 20 1 18 21
M  V30 21 1 20 22
M  V30 22 1 22 23
M  V30 END BOND
M  V30 BEGIN COLLECTION
M  V30 MDLV30/STERAC1 ATOMS=(1 7)
M  V30 END COLLECTION
M  V30 END CTAB
M  END
>  <Molecule Name>
Propane-1,1,2,3-tetracarboxylic acid, tetraethyl ester

>  <Activity Label>
0

>  <SMILES>
CCOC(CC(C(C(OCC)=O)C(OCC)=O)C(OCC)=O)=O

>  <Molecular Formula>
C15H24O8

>  <InChIKey>
WGEVJRBJWMGTSI-UHFFFAOYSA-N

>  <Repellency>
Inactive

>  <Reference DOI>
10.3390/toxics11100837

>  <Target Organism>
Not applied

$$$$
Compound 1127
Actelion Java MolfileCreator 2.0

  0  0  0  0  0  0              0 V3000
M  V30 BEGIN CTAB
M  V30 COUNTS 23 22 0 0 0
M  V30 BEGIN ATOM
M  V30 1 O 0.0 0.0 0.0 0
M  V30 2 C 0.0 1.5025 0.0 0
M  V30 3 O 1.3014 2.2478 0.0 0
M  V30 4 C -1.3014 2.2478 0.0 0
M  V30 5 C 2.6028 1.5025 0.0 0
M  V30 6 C -2.6028 1.5025 0.0 0
M  V30 7 C 3.9042 2.2478 0.0 0
M  V30 8 C -3.9042 2.2478 0.0 0
M  V30 9 C 5.2056 1.5025 0.0 0
M  V30 10 C -5.2056 1.5025 0.0 0
M  V30 11 C 6.507 2.2478 0.0 0
M  V30 12 C -6.507 2.2478 0.0 0
M  V30 13 C 7.8084 1.5025 0.0 0
M  V30 14 C -7.8084 1.5025 0.0 0
M  V30 15 C -9.1099 2.2478 0.0 0
M  V30 16 C -10.4113 1.5025 0.0 0
M  V30 17 O -10.4113 0.0 0.0 0
M  V30 18 O -11.7127 2.2478 0.0 0
M  V30 19 C -13.0141 1.5025 0.0 0
M  V30 20 C -14.3155 2.2478 0.0 0
M  V30 21 C -15.6169 1.5025 0.0 0
M  V30 22 C -16.9183 2.2478 0.0 0
M  V30 23 C -18.2198 1.5025 0.0 0
M  V30 END ATOM
M  V30 BEGIN BOND
M  V30 1 2 1 2
M  V30 2 1 2 3
M  V30 3 1 2 4
M  V30 4 1 3 5
M  V30 5 1 4 6
M  V30 6 1 5 7
M  V30 7 1 6 8
M  V30 8 1 7 9
M  V30 9 1 8 10
M  V30 10 1 9 11
M  V30 11 1 10 12
M  V30 12 1 11 13
M  V30 13 1 12 14
M  V30 14 1 14 15
M  V30 15 1 15 16
M  V30 16 2 16 17
M  V30 17 1 16 18
M  V30 18 1 18 19
M  V30 19 1 19 20
M  V30 20 1 20 21
M  V30 21 1 21 22
M  V30 22 1 22 23
M  V30 END BOND
M  V30 END CTAB
M  END
>  <Molecule Name>
Azelaic acid, diamyl ester

>  <Activity Label>
0

>  <SMILES>
CCCCCOC(CCCCCCCC(OCCCCC)=O)=O

>  <Molecular Formula>
C19H36O4

>  <InChIKey>
CITCWHDBYDRGFZ-UHFFFAOYSA-N

>  <Repellency>
Inactive

>  <Reference DOI>
10.3390/toxics11100837

>  <Target Organism>
Not applied

$$$$
Compound 1128
Actelion Java MolfileCreator 2.0

  0  0  0  0  0  0              0 V3000
M  V30 BEGIN CTAB
M  V30 COUNTS 23 22 0 0 0
M  V30 BEGIN ATOM
M  V30 1 Cl 0.0 0.0 0.0 0
M  V30 2 C -1.301 -0.7451 0.0 0
M  V30 3 C -2.6021 0.0 0.0 0
M  V30 4 O -3.9032 -0.7451 0.0 0
M  V30 5 P -5.2042 0.0 0.0 0
M  V30 6 O -5.2042 -1.5021 0.0 0
M  V30 7 O -5.2042 1.5021 0.0 0
M  V30 8 O -6.5053 -0.7451 0.0 0
M  V30 9 C -3.9032 2.2473 0.0 0
M  V30 10 C -7.8064 0.0 0.0 0
M  V30 11 C -3.9032 3.7494 0.0 0
M  V30 12 C -9.1075 -0.7451 0.0 0
M  V30 13 Cl -2.6021 4.5064 0.0 0
M  V30 14 C -10.4085 0.0 0.0 0
M  V30 15 C -11.7096 -0.7451 0.0 0
M  V30 16 C -13.0107 0.0 0.0 0
M  V30 17 C -14.3117 -0.7451 0.0 0
M  V30 18 C -15.6128 0.0 0.0 0
M  V30 19 C -16.9139 -0.7451 0.0 0
M  V30 20 C -18.215 0.0 0.0 0
M  V30 21 C -19.516 -0.7451 0.0 0
M  V30 22 C -20.8171 0.0 0.0 0
M  V30 23 C -22.1182 -0.7451 0.0 0
M  V30 END ATOM
M  V30 BEGIN BOND
M  V30 1 1 1 2
M  V30 2 1 2 3
M  V30 3 1 3 4
M  V30 4 1 4 5
M  V30 5 2 5 6
M  V30 6 1 5 7
M  V30 7 1 5 8
M  V30 8 1 7 9
M  V30 9 1 8 10
M  V30 10 1 9 11
M  V30 11 1 10 12
M  V30 12 1 11 13
M  V30 13 1 12 14
M  V30 14 1 14 15
M  V30 15 1 15 16
M  V30 16 1 16 17
M  V30 17 1 17 18
M  V30 18 1 18 19
M  V30 19 1 19 20
M  V30 20 1 20 21
M  V30 21 1 21 22
M  V30 22 1 22 23
M  V30 END BOND
M  V30 END CTAB
M  END
>  <Molecule Name>
Phosphoric acid, di-(2-chloroethyl) dodecyl ester

>  <Activity Label>
0

>  <SMILES>
CCCCCCCCCCCCOP(OCCCl)(OCCCl)=O

>  <Molecular Formula>
C16H33O4Cl2P

>  <InChIKey>
ZFOYRWZJJPNDJA-UHFFFAOYSA-N

>  <Repellency>
Inactive

>  <Reference DOI>
10.3390/toxics11100837

>  <Target Organism>
Not applied

$$$$
Compound 1129
Actelion Java MolfileCreator 2.0

  0  0  0  0  0  0              0 V3000
M  V30 BEGIN CTAB
M  V30 COUNTS 23 22 0 0 0
M  V30 BEGIN ATOM
M  V30 1 O 0.0 0.0 0.0 0
M  V30 2 C 1.3009 0.745 0.0 0
M  V30 3 C 2.6019 0.0 0.0 0
M  V30 4 C 3.9028 0.745 0.0 0
M  V30 5 C 5.2038 0.0 0.0 0
M  V30 6 C 6.5048 0.745 0.0 0
M  V30 7 C 7.8057 0.0 0.0 0
M  V30 8 C 9.1067 0.745 0.0 0
M  V30 9 C 10.4076 0.0 0.0 0
M  V30 10 C 11.7086 0.745 0.0 0
M  V30 11 C 13.0096 0.0 0.0 0
M  V30 12 C 14.3105 0.745 0.0 0
M  V30 13 C 15.6115 0.0 0.0 0
M  V30 14 C 16.9124 0.745 0.0 0
M  V30 15 C 18.2134 0.0 0.0 0
M  V30 16 C 18.2134 -1.502 0.0 0
M  V30 17 C 19.5144 -2.2471 0.0 0
M  V30 18 C 19.5144 -3.7491 0.0 0
M  V30 19 C 20.8153 -4.4942 0.0 0
M  V30 20 C 20.8153 -5.9962 0.0 0
M  V30 21 C 22.1163 -6.7413 0.0 0
M  V30 22 C 22.1163 -8.2433 0.0 0
M  V30 23 C 23.4173 -9.0002 0.0 0
M  V30 END ATOM
M  V30 BEGIN BOND
M  V30 1 1 1 2
M  V30 2 1 2 3
M  V30 3 1 3 4
M  V30 4 1 4 5
M  V30 5 1 5 6
M  V30 6 1 6 7
M  V30 7 1 7 8
M  V30 8 1 8 9
M  V30 9 1 9 10
M  V30 10 1 10 11
M  V30 11 1 11 12
M  V30 12 1 12 13
M  V30 13 1 13 14
M  V30 14 2 14 15
M  V30 15 1 15 16
M  V30 16 1 16 17
M  V30 17 1 17 18
M  V30 18 1 18 19
M  V30 19 1 19 20
M  V30 20 1 20 21
M  V30 21 1 21 22
M  V30 22 1 22 23
M  V30 END BOND
M  V30 END CTAB
M  END
>  <Molecule Name>
Erucyl alcohol

>  <Activity Label>
0

>  <SMILES>
CCCCCCCC/C=C\CCCCCCCCCCCCO

>  <Molecular Formula>
C22H44O

>  <InChIKey>
CFOQKXQWGLAKSK-KTKRTIGZSA-N

>  <Repellency>
Inactive

>  <Reference DOI>
10.3390/toxics11100837

>  <Target Organism>
Not applied

$$$$
Compound 1130
Actelion Java MolfileCreator 2.0

  0  0  0  0  0  0              0 V3000
M  V30 BEGIN CTAB
M  V30 COUNTS 23 22 0 0 0
M  V30 BEGIN ATOM
M  V30 1 O 0.0 0.0 0.0 0
M  V30 2 C 0.0 1.5024 0.0 0
M  V30 3 O -1.3013 2.2477 0.0 0
M  V30 4 C 1.3013 2.2477 0.0 0 CFG=1
M  V30 5 C -2.6026 1.5024 0.0 0
M  V30 6 O 2.6026 1.5024 0.0 0
M  V30 7 C 1.3013 3.7501 0.0 0
M  V30 8 C -3.9039 2.2477 0.0 0
M  V30 9 C 3.9039 2.2477 0.0 0
M  V30 10 O -5.2052 1.5024 0.0 0
M  V30 11 O 3.9039 3.7501 0.0 0
M  V30 12 C 5.2052 1.5024 0.0 0
M  V30 13 C -6.5065 2.2477 0.0 0
M  V30 14 C 6.5065 2.2477 0.0 0
M  V30 15 C -7.8078 1.5024 0.0 0
M  V30 16 C 7.8078 1.5024 0.0 0
M  V30 17 C -9.1091 2.2477 0.0 0
M  V30 18 C 9.1091 2.2477 0.0 0
M  V30 19 C -10.4104 1.5024 0.0 0
M  V30 20 C 10.4104 1.5024 0.0 0
M  V30 21 C 11.7117 2.2477 0.0 0
M  V30 22 C 13.013 1.5024 0.0 0
M  V30 23 C 14.3143 2.2477 0.0 0
M  V30 END ATOM
M  V30 BEGIN BOND
M  V30 1 2 1 2
M  V30 2 1 2 3
M  V30 3 1 2 4
M  V30 4 1 3 5
M  V30 5 1 4 6
M  V30 6 1 4 7 CFG=3
M  V30 7 1 5 8
M  V30 8 1 6 9
M  V30 9 1 8 10
M  V30 10 2 9 11
M  V30 11 1 9 12
M  V30 12 1 10 13
M  V30 13 1 12 14
M  V30 14 1 13 15
M  V30 15 1 14 16
M  V30 16 1 15 17
M  V30 17 1 16 18
M  V30 18 1 17 19
M  V30 19 1 18 20
M  V30 20 1 20 21
M  V30 21 1 21 22
M  V30 22 1 22 23
M  V30 END BOND
M  V30 BEGIN COLLECTION
M  V30 MDLV30/STERAC1 ATOMS=(1 4)
M  V30 END COLLECTION
M  V30 END CTAB
M  END
>  <Molecule Name>
alpha-Pelargonoxypropionic acid, beta-butoxyethyl ester

>  <Activity Label>
0

>  <SMILES>
CCCCCCCCC(OC(C)C(OCCOCCCC)=O)=O

>  <Molecular Formula>
C18H34O5

>  <InChIKey>
ZEZGOXSLMGJBFO-UHFFFAOYSA-N

>  <Repellency>
Inactive

>  <Reference DOI>
10.3390/toxics11100837

>  <Target Organism>
Not applied

$$$$
Compound 1131
Actelion Java MolfileCreator 2.0

  0  0  0  0  0  0              0 V3000
M  V30 BEGIN CTAB
M  V30 COUNTS 23 22 0 0 0
M  V30 BEGIN ATOM
M  V30 1 O 0.0 0.0 0.0 0
M  V30 2 C -1.2992 0.7441 0.0 0
M  V30 3 C 1.2992 0.7441 0.0 0
M  V30 4 O -1.2992 2.2441 0.0 0
M  V30 5 C -2.5984 -0.0118 0.0 0
M  V30 6 C 2.5984 -0.0118 0.0 0
M  V30 7 C 0.0 3.0 0.0 0
M  V30 8 C -3.8977 0.7322 0.0 0
M  V30 9 C 0.0 4.5 0.0 0
M  V30 10 O -3.8977 2.2323 0.0 0
M  V30 11 C -5.1969 -0.0236 0.0 0
M  V30 12 C -2.5984 2.9764 0.0 0
M  V30 13 C -6.4961 0.7204 0.0 0
M  V30 14 C -2.5984 4.4764 0.0 0
M  V30 15 O -6.4961 2.2205 0.0 0
M  V30 16 C -7.7954 -0.0354 0.0 0
M  V30 17 C -5.1969 2.9646 0.0 0
M  V30 18 C -9.0946 0.7086 0.0 0
M  V30 19 C -5.1969 4.4646 0.0 0
M  V30 20 O -10.3938 -0.0472 0.0 0
M  V30 21 C -9.0946 2.2086 0.0 0
M  V30 22 C -11.6931 0.6968 0.0 0
M  V30 23 C -12.9923 -0.059 0.0 0
M  V30 END ATOM
M  V30 BEGIN BOND
M  V30 1 1 1 2
M  V30 2 1 1 3
M  V30 3 1 2 4
M  V30 4 1 2 5
M  V30 5 1 3 6
M  V30 6 1 4 7
M  V30 7 1 5 8
M  V30 8 1 7 9
M  V30 9 1 8 10
M  V30 10 1 8 11
M  V30 11 1 10 12
M  V30 12 1 11 13
M  V30 13 1 12 14
M  V30 14 1 13 15
M  V30 15 1 13 16
M  V30 16 1 15 17
M  V30 17 1 16 18
M  V30 18 1 17 19
M  V30 19 1 18 20
M  V30 20 1 18 21
M  V30 21 1 20 22
M  V30 22 1 22 23
M  V30 END BOND
M  V30 END CTAB
M  END
>  <Molecule Name>
1,1,3,5,7-Pentaethoxyoctane

>  <Activity Label>
0

>  <SMILES>
CCOC(C)CC(CC(CC(OCC)OCC)OCC)OCC

>  <Molecular Formula>
C18H38O5

>  <InChIKey>
BMNHTYILIWKJBS-UHFFFAOYSA-N

>  <Repellency>
Inactive

>  <Reference DOI>
10.3390/toxics11100837

>  <Target Organism>
Not applied

$$$$
Compound 1132
Actelion Java MolfileCreator 2.0

  0  0  0  0  0  0              0 V3000
M  V30 BEGIN CTAB
M  V30 COUNTS 23 22 0 0 0
M  V30 BEGIN ATOM
M  V30 1 O 0.0 0.0 0.0 0
M  V30 2 C -1.2992 0.7559 0.0 0
M  V30 3 O -2.5984 0.0118 0.0 0
M  V30 4 C -1.2992 2.2558 0.0 0 CFG=1
M  V30 5 C -2.5984 -1.4881 0.0 0
M  V30 6 N 0.0 2.9999 0.0 0
M  V30 7 C -2.5984 2.9999 0.0 0
M  V30 8 C 1.2992 2.244 0.0 0
M  V30 9 C -3.8976 2.244 0.0 0
M  V30 10 C 2.5984 2.9881 0.0 0
M  V30 11 O -3.8976 0.744 0.0 0
M  V30 12 O -5.1968 2.9881 0.0 0
M  V30 13 C 3.8976 2.2322 0.0 0
M  V30 14 C -6.496 2.2322 0.0 0
M  V30 15 C 5.1968 2.9763 0.0 0
M  V30 16 C 6.496 2.2204 0.0 0
M  V30 17 C 7.7952 2.9645 0.0 0
M  V30 18 C 9.0944 2.2086 0.0 0
M  V30 19 C 10.3936 2.9527 0.0 0
M  V30 20 C 11.6928 2.1968 0.0 0
M  V30 21 C 12.992 2.9409 0.0 0
M  V30 22 C 14.2913 2.185 0.0 0
M  V30 23 C 15.5905 2.9291 0.0 0
M  V30 END ATOM
M  V30 BEGIN BOND
M  V30 1 2 1 2
M  V30 2 1 2 3
M  V30 3 1 2 4
M  V30 4 1 3 5
M  V30 5 1 4 6 CFG=3
M  V30 6 1 4 7
M  V30 7 1 6 8
M  V30 8 1 7 9
M  V30 9 1 8 10
M  V30 10 2 9 11
M  V30 11 1 9 12
M  V30 12 1 10 13
M  V30 13 1 12 14
M  V30 14 1 13 15
M  V30 15 1 15 16
M  V30 16 1 16 17
M  V30 17 1 17 18
M  V30 18 1 18 19
M  V30 19 1 19 20
M  V30 20 1 20 21
M  V30 21 1 21 22
M  V30 22 1 22 23
M  V30 END BOND
M  V30 BEGIN COLLECTION
M  V30 MDLV30/STEABS ATOMS=(1 4)
M  V30 END COLLECTION
M  V30 END CTAB
M  END
>  <Molecule Name>
N-Dodecylaspartic acid, dimethyl ester

>  <Activity Label>
0

>  <SMILES>
CCCCCCCCCCCCN[C@@H](CC(OC)=O)C(OC)=O

>  <Molecular Formula>
C18H35NO4

>  <InChIKey>
XDVWGPDXDNZZGK-INIZCTEOSA-N

>  <Repellency>
Inactive

>  <Reference DOI>
10.3390/toxics11100837

>  <Target Organism>
Not applied

$$$$
Compound 1133
Actelion Java MolfileCreator 2.0

  0  0  0  0  0  0              0 V3000
M  V30 BEGIN CTAB
M  V30 COUNTS 23 22 0 0 0
M  V30 BEGIN ATOM
M  V30 1 Cl 0.0 0.0 0.0 0
M  V30 2 C -0.7445 1.3 0.0 0
M  V30 3 Cl -2.0446 0.5554 0.0 0
M  V30 4 Cl -1.4891 2.6 0.0 0
M  V30 5 C 0.5554 2.0446 0.0 0
M  V30 6 O 1.8555 1.2882 0.0 0
M  V30 7 N 0.5554 3.5455 0.0 0
M  V30 8 C 1.8555 4.2901 0.0 0
M  V30 9 C -0.7445 4.2901 0.0 0
M  V30 10 C 3.1555 3.5455 0.0 0
M  V30 11 C -0.7445 5.791 0.0 0
M  V30 12 C 4.4555 4.2901 0.0 0
M  V30 13 C 3.1555 2.0446 0.0 0
M  V30 14 C -2.0446 6.5474 0.0 0
M  V30 15 C 0.5554 6.5356 0.0 0
M  V30 16 C 5.7556 3.5455 0.0 0
M  V30 17 C 4.4555 1.2882 0.0 0
M  V30 18 C -2.0446 8.0484 0.0 0
M  V30 19 C 0.5554 8.0366 0.0 0
M  V30 20 C 7.0556 4.2901 0.0 0
M  V30 21 C -3.3446 8.8048 0.0 0
M  V30 22 C 8.3557 3.5455 0.0 0
M  V30 23 C -3.3446 10.3057 0.0 0
M  V30 END ATOM
M  V30 BEGIN BOND
M  V30 1 1 1 2
M  V30 2 1 2 3
M  V30 3 1 2 4
M  V30 4 1 2 5
M  V30 5 2 5 6
M  V30 6 1 5 7
M  V30 7 1 7 8
M  V30 8 1 7 9
M  V30 9 1 8 10
M  V30 10 1 9 11
M  V30 11 1 10 12
M  V30 12 1 10 13
M  V30 13 1 11 14
M  V30 14 1 11 15
M  V30 15 1 12 16
M  V30 16 1 13 17
M  V30 17 1 14 18
M  V30 18 1 15 19
M  V30 19 1 16 20
M  V30 20 1 18 21
M  V30 21 1 20 22
M  V30 22 1 21 23
M  V30 END BOND
M  V30 END CTAB
M  END
>  <Molecule Name>
N,N-Di-(2-ethylhexyl)trichloroacetamide

>  <Activity Label>
0

>  <SMILES>
CCCCC(CC)CN(CC(CC)CCCC)C(C(Cl)(Cl)Cl)=O

>  <Molecular Formula>
C18H34NOCl3

>  <InChIKey>
AQTKUBSOCLDIJW-UHFFFAOYSA-N

>  <Repellency>
Inactive

>  <Reference DOI>
10.3390/toxics11100837

>  <Target Organism>
Not applied

$$$$
Compound 1134
Actelion Java MolfileCreator 2.0

  0  0  0  0  0  0              0 V3000
M  V30 BEGIN CTAB
M  V30 COUNTS 23 25 0 0 0
M  V30 BEGIN ATOM
M  V30 1 O 0.0 0.0 0.0 0
M  V30 2 C -1.2986 -0.7555 0.0 0
M  V30 3 O -2.5972 -0.0118 0.0 0
M  V30 4 C -1.2986 -2.2548 0.0 0 CFG=1
M  V30 5 C -3.8958 -0.7673 0.0 0
M  V30 6 C -2.5972 -3.0104 0.0 0
M  V30 7 C 0.0 -2.9985 0.0 0
M  V30 8 C -2.5972 -1.5111 0.0 0
M  V30 9 C -2.5972 -4.5097 0.0 0 CFG=1
M  V30 10 C -3.8958 -2.2666 0.0 0
M  V30 11 C 0.0 -4.4978 0.0 0
M  V30 12 C -3.8958 -5.2652 0.0 0
M  V30 13 C -1.2986 -5.2652 0.0 0
M  V30 14 C -2.5972 -6.0089 0.0 0
M  V30 15 C -5.1944 -3.0222 0.0 0
M  V30 16 C -5.1944 -4.5215 0.0 0
M  V30 17 C -3.8958 -6.7645 0.0 0
M  V30 18 C -6.493 -5.277 0.0 0
M  V30 19 C -5.1944 -7.5201 0.0 0
M  V30 20 C -6.493 -6.7763 0.0 0
M  V30 21 C -7.7916 -7.5319 0.0 0
M  V30 22 C -9.0902 -6.7881 0.0 0
M  V30 23 C -7.7916 -9.0312 0.0 0
M  V30 END ATOM
M  V30 BEGIN BOND
M  V30 1 2 1 2
M  V30 2 1 2 3
M  V30 3 1 2 4
M  V30 4 1 3 5
M  V30 5 1 4 6
M  V30 6 1 4 7
M  V30 7 1 4 8 CFG=1
M  V30 8 1 6 9
M  V30 9 1 6 10
M  V30 10 1 7 11
M  V30 11 1 9 12
M  V30 12 1 9 13
M  V30 13 1 9 14 CFG=1
M  V30 14 1 10 15
M  V30 15 1 12 16
M  V30 16 1 12 17
M  V30 17 1 16 18
M  V30 18 1 17 19
M  V30 19 2 18 20
M  V30 20 1 20 21
M  V30 21 1 21 22
M  V30 22 1 21 23
M  V30 23 1 11 13
M  V30 24 2 15 16
M  V30 25 1 19 20
M  V30 END BOND
M  V30 BEGIN COLLECTION
M  V30 MDLV30/STEABS ATOMS=(2 4 9)
M  V30 END COLLECTION
M  V30 END CTAB
M  END
>  <Molecule Name>
Abietic acid, methyl ester

>  <Activity Label>
0

>  <SMILES>
CC(C)C(CCC1[C@@]2(C)CCC3)=CC1=CCC2[C@]3(C)C(OC)=O

>  <Molecular Formula>
C21H32O2

>  <InChIKey>
OVXRPXGVKBHGQO-OWQMCBFZSA-N

>  <Repellency>
Inactive

>  <Reference DOI>
10.3390/toxics11100837

>  <Target Organism>
Not applied

$$$$
Compound 1135
Actelion Java MolfileCreator 2.0

  0  0  0  0  0  0              0 V3000
M  V30 BEGIN CTAB
M  V30 COUNTS 23 23 0 0 0
M  V30 BEGIN ATOM
M  V30 1 S 0.0 0.0 0.0 0
M  V30 2 O 0.7557 1.2989 0.0 0
M  V30 3 O -0.7439 1.2989 0.0 0
M  V30 4 O -1.2989 -0.7557 0.0 0
M  V30 5 C 1.2989 -0.7557 0.0 0
M  V30 6 C -2.5979 -0.0118 0.0 0
M  V30 7 C 2.5979 0.0 0.0 0
M  V30 8 C 1.2989 -2.2554 0.0 0
M  V30 9 C -3.8969 -0.7675 0.0 0
M  V30 10 C 3.8969 -0.7557 0.0 0
M  V30 11 C 2.5979 -2.9994 0.0 0
M  V30 12 C -5.1959 -0.0236 0.0 0
M  V30 13 C 3.8969 -2.2554 0.0 0
M  V30 14 C -6.4948 -0.7793 0.0 0
M  V30 15 C 5.1959 -2.9994 0.0 0
M  V30 16 C -7.7938 -0.0354 0.0 0
M  V30 17 C -9.0928 -0.7911 0.0 0
M  V30 18 C -10.3918 -0.0472 0.0 0
M  V30 19 C -11.6907 -0.803 0.0 0
M  V30 20 C -12.9897 -0.059 0.0 0
M  V30 21 C -14.2887 -0.8148 0.0 0
M  V30 22 C -15.5877 -0.0708 0.0 0
M  V30 23 C -16.8866 -0.8266 0.0 0
M  V30 END ATOM
M  V30 BEGIN BOND
M  V30 1 2 1 2
M  V30 2 2 1 3
M  V30 3 1 1 4
M  V30 4 1 1 5
M  V30 5 1 4 6
M  V30 6 2 5 7
M  V30 7 1 5 8
M  V30 8 1 6 9
M  V30 9 1 7 10
M  V30 10 2 8 11
M  V30 11 1 9 12
M  V30 12 2 10 13
M  V30 13 1 12 14
M  V30 14 1 13 15
M  V30 15 1 14 16
M  V30 16 1 16 17
M  V30 17 1 17 18
M  V30 18 1 18 19
M  V30 19 1 19 20
M  V30 20 1 20 21
M  V30 21 1 21 22
M  V30 22 1 22 23
M  V30 23 1 11 13
M  V30 END BOND
M  V30 END CTAB
M  END
>  <Molecule Name>
p-Toluenesulfonic acid, n-dodecyl ester

>  <Activity Label>
0

>  <SMILES>
CCCCCCCCCCCCOS(c1ccc(C)cc1)(=O)=O

>  <Molecular Formula>
C19H32O3S

>  <InChIKey>
QHKNLARMWXIVSM-UHFFFAOYSA-N

>  <Repellency>
Inactive

>  <Reference DOI>
10.3390/toxics11100837

>  <Target Organism>
Not applied

$$$$
Compound 1136
Actelion Java MolfileCreator 2.0

  0  0  0  0  0  0              0 V3000
M  V30 BEGIN CTAB
M  V30 COUNTS 24 24 0 0 0
M  V30 BEGIN ATOM
M  V30 1 O 0.0 0.0 0.0 0
M  V30 2 C 1.3005 -0.7566 0.0 0
M  V30 3 O 1.3005 -2.2581 0.0 0
M  V30 4 C 2.601 -0.0118 0.0 0
M  V30 5 C 0.0 -3.0029 0.0 0
M  V30 6 C 2.601 1.4896 0.0 0
M  V30 7 C 3.9015 -0.7566 0.0 0
M  V30 8 C 0.0 -4.5044 0.0 0
M  V30 9 C 1.3005 2.2344 0.0 0
M  V30 10 C 3.9015 2.2344 0.0 0
M  V30 11 C 5.202 -0.0118 0.0 0
M  V30 12 C -1.3005 -5.2611 0.0 0
M  V30 13 O 1.3005 3.7359 0.0 0
M  V30 14 O 0.0 1.4896 0.0 0
M  V30 15 C 5.202 1.4896 0.0 0
M  V30 16 C -1.3005 -6.7626 0.0 0
M  V30 17 C -1.3005 2.2344 0.0 0
M  V30 18 C -2.601 -7.5074 0.0 0
M  V30 19 C -2.601 1.4896 0.0 0
M  V30 20 C -2.601 -9.0089 0.0 0
M  V30 21 C -3.9015 2.2344 0.0 0
M  V30 22 C -5.202 1.4896 0.0 0
M  V30 23 C -6.5025 2.2344 0.0 0
M  V30 24 C -7.803 1.4896 0.0 0
M  V30 END ATOM
M  V30 BEGIN BOND
M  V30 1 2 1 2
M  V30 2 1 2 3
M  V30 3 1 2 4
M  V30 4 1 3 5
M  V30 5 2 4 6
M  V30 6 1 4 7
M  V30 7 1 5 8
M  V30 8 1 6 9
M  V30 9 1 6 10
M  V30 10 2 7 11
M  V30 11 1 8 12
M  V30 12 2 9 13
M  V30 13 1 9 14
M  V30 14 2 10 15
M  V30 15 1 12 16
M  V30 16 1 14 17
M  V30 17 1 16 18
M  V30 18 1 17 19
M  V30 19 1 18 20
M  V30 20 1 19 21
M  V30 21 1 21 22
M  V30 22 1 22 23
M  V30 23 1 23 24
M  V30 24 1 11 15
M  V30 END BOND
M  V30 END CTAB
M  END
>  <Molecule Name>
Phthalic acid, di-n-hexyl ester

>  <Activity Label>
0

>  <SMILES>
CCCCCCOC(c(cccc1)c1C(OCCCCCC)=O)=O

>  <Molecular Formula>
C20H30O4

>  <InChIKey>
KCXZNSGUUQJJTR-UHFFFAOYSA-N

>  <Repellency>
Inactive

>  <Reference DOI>
10.3390/toxics11100837

>  <Target Organism>
Not applied

$$$$
Compound 1137
Actelion Java MolfileCreator 2.0

  0  0  0  0  0  0              0 V3000
M  V30 BEGIN CTAB
M  V30 COUNTS 24 24 0 0 0
M  V30 BEGIN ATOM
M  V30 1 Cl 0.0 0.0 0.0 0
M  V30 2 C -0.7452 1.3012 0.0 0
M  V30 3 Cl -2.0464 0.5559 0.0 0
M  V30 4 Cl -1.4905 2.6024 0.0 0
M  V30 5 C 0.5559 2.0464 0.0 0 CFG=2
M  V30 6 O 1.8572 1.3012 0.0 0
M  V30 7 C 0.5559 3.5488 0.0 0
M  V30 8 C 3.1584 2.0464 0.0 0
M  V30 9 C 1.8572 4.294 0.0 0
M  V30 10 C -0.7452 4.294 0.0 0
M  V30 11 O 3.1584 3.5488 0.0 0
M  V30 12 C 4.4596 1.3012 0.0 0
M  V30 13 C 1.8572 5.7963 0.0 0
M  V30 14 C -0.7452 5.7963 0.0 0
M  V30 15 C 5.7609 2.0464 0.0 0
M  V30 16 C 0.5559 6.5416 0.0 0
M  V30 17 C 7.0621 1.3012 0.0 0
M  V30 18 C 8.3633 2.0464 0.0 0
M  V30 19 C 9.6646 1.3012 0.0 0
M  V30 20 C 10.9658 2.0464 0.0 0
M  V30 21 C 12.267 1.3012 0.0 0
M  V30 22 C 13.5682 2.0464 0.0 0
M  V30 23 C 14.8695 1.3012 0.0 0
M  V30 24 C 16.1707 2.0464 0.0 0
M  V30 END ATOM
M  V30 BEGIN BOND
M  V30 1 1 1 2
M  V30 2 1 2 3
M  V30 3 1 2 4
M  V30 4 1 2 5
M  V30 5 1 5 6 CFG=1
M  V30 6 1 5 7
M  V30 7 1 6 8
M  V30 8 2 7 9
M  V30 9 1 7 10
M  V30 10 2 8 11
M  V30 11 1 8 12
M  V30 12 1 9 13
M  V30 13 2 10 14
M  V30 14 1 12 15
M  V30 15 2 13 16
M  V30 16 1 15 17
M  V30 17 1 17 18
M  V30 18 1 18 19
M  V30 19 1 19 20
M  V30 20 1 20 21
M  V30 21 1 21 22
M  V30 22 2 22 23 CFG=2
M  V30 23 1 23 24
M  V30 24 1 14 16
M  V30 END BOND
M  V30 BEGIN COLLECTION
M  V30 MDLV30/STERAC1 ATOMS=(1 5)
M  V30 END COLLECTION
M  V30 END CTAB
M  END
>  <Molecule Name>
9-Hendecenoic acid, alpha-(trichloromethyl)benzyl ester

>  <Activity Label>
0

>  <SMILES>
CC=CCCCCCCCC(OC(C(Cl)(Cl)Cl)c1ccccc1)=O

>  <Molecular Formula>
C19H25O2Cl3

>  <InChIKey>
AMXRSFDILXVLNI-UHFFFAOYSA-N

>  <Repellency>
Inactive

>  <Reference DOI>
10.3390/toxics11100837

>  <Target Organism>
Not applied

$$$$
Compound 1138
Actelion Java MolfileCreator 2.0

  0  0  0  0  0  0              0 V3000
M  V30 BEGIN CTAB
M  V30 COUNTS 24 24 0 0 0
M  V30 BEGIN ATOM
M  V30 1 O 0.0 0.0 0.0 0
M  V30 2 C 0.0 -1.5013 0.0 0
M  V30 3 O -1.3003 -2.2461 0.0 0
M  V30 4 C 1.3003 -2.2461 0.0 0
M  V30 5 C -2.6007 -1.5013 0.0 0
M  V30 6 C 2.6007 -1.5013 0.0 0
M  V30 7 C -3.9011 -2.2461 0.0 0 CFG=2
M  V30 8 C 3.9011 -2.2461 0.0 0
M  V30 9 O -4.6577 -3.5465 0.0 0
M  V30 10 C -5.4025 -2.2461 0.0 0
M  V30 11 C 5.2015 -1.5013 0.0 0
M  V30 12 C 6.5019 -2.2461 0.0 0
M  V30 13 C 7.8023 -1.5013 0.0 0
M  V30 14 C 9.1027 -2.2461 0.0 0
M  V30 15 C 10.4031 -1.5013 0.0 0
M  V30 16 C 11.7034 -2.2461 0.0 0
M  V30 17 C 11.7034 -3.7474 0.0 0
M  V30 18 C 13.0038 -4.504 0.0 0
M  V30 19 C 13.0038 -6.0054 0.0 0
M  V30 20 C 14.3042 -6.762 0.0 0
M  V30 21 C 14.3042 -8.2633 0.0 0
M  V30 22 C 15.6046 -9.0081 0.0 0
M  V30 23 C 15.6046 -10.5095 0.0 0
M  V30 24 C 16.905 -11.2542 0.0 0
M  V30 END ATOM
M  V30 BEGIN BOND
M  V30 1 2 1 2
M  V30 2 1 2 3
M  V30 3 1 2 4
M  V30 4 1 3 5
M  V30 5 1 4 6
M  V30 6 1 7 5 CFG=3
M  V30 7 1 6 8
M  V30 8 1 7 9
M  V30 9 1 7 10
M  V30 10 1 8 11
M  V30 11 1 11 12
M  V30 12 1 12 13
M  V30 13 1 13 14
M  V30 14 1 14 15
M  V30 15 2 15 16
M  V30 16 1 16 17
M  V30 17 1 17 18
M  V30 18 1 18 19
M  V30 19 1 19 20
M  V30 20 1 20 21
M  V30 21 1 21 22
M  V30 22 1 22 23
M  V30 23 1 23 24
M  V30 24 1 9 10
M  V30 END BOND
M  V30 BEGIN COLLECTION
M  V30 MDLV30/STERAC1 ATOMS=(1 7)
M  V30 END COLLECTION
M  V30 END CTAB
M  END
>  <Molecule Name>
Oleic acid, glycidyl ester

>  <Activity Label>
0

>  <SMILES>
CCCCCCCC/C=C\CCCCCCCC(OCC1OC1)=O

>  <Molecular Formula>
C21H38O3

>  <InChIKey>
VWYIWOYBERNXLX-KTKRTIGZSA-N

>  <Repellency>
Inactive

>  <Reference DOI>
10.3390/toxics11100837

>  <Target Organism>
Not applied

$$$$
Compound 1139
Actelion Java MolfileCreator 2.0

  0  0  0  0  0  0              0 V3000
M  V30 BEGIN CTAB
M  V30 COUNTS 24 24 0 0 0
M  V30 BEGIN ATOM
M  V30 1 O 0.0 0.0 0.0 0
M  V30 2 C 0.0 -1.5016 0.0 0
M  V30 3 O -1.3006 -2.2464 0.0 0
M  V30 4 C 1.3006 -2.2464 0.0 0
M  V30 5 C -2.6012 -1.5016 0.0 0
M  V30 6 C 2.6012 -1.5016 0.0 0
M  V30 7 C -3.9018 -2.2464 0.0 0 CFG=2
M  V30 8 C 3.9018 -2.2464 0.0 0
M  V30 9 C -5.2024 -1.5016 0.0 0
M  V30 10 C -3.9018 -3.748 0.0 0
M  V30 11 C 5.2024 -1.4897 0.0 0
M  V30 12 C 3.9018 -3.748 0.0 0
M  V30 13 C -6.503 -2.2464 0.0 0
M  V30 14 C -2.6012 -4.4929 0.0 0
M  V30 15 C 6.503 -2.2346 0.0 0
M  V30 16 C 5.2024 -4.4929 0.0 0
M  V30 17 C -7.8036 -1.5016 0.0 0
M  V30 18 C 6.503 -3.7362 0.0 0
M  V30 19 C -9.1042 -2.2464 0.0 0
M  V30 20 O 7.8036 -4.4811 0.0 0
M  V30 21 C 7.8036 -5.9827 0.0 0
M  V30 22 C 9.1042 -6.7276 0.0 0
M  V30 23 C 9.1042 -8.2292 0.0 0
M  V30 24 C 10.4048 -8.9741 0.0 0
M  V30 END ATOM
M  V30 BEGIN BOND
M  V30 1 2 1 2
M  V30 2 1 2 3
M  V30 3 1 2 4
M  V30 4 1 3 5
M  V30 5 2 4 6 CFG=2
M  V30 6 1 7 5 CFG=1
M  V30 7 1 6 8
M  V30 8 1 7 9
M  V30 9 1 7 10
M  V30 10 2 8 11
M  V30 11 1 8 12
M  V30 12 1 9 13
M  V30 13 1 10 14
M  V30 14 1 11 15
M  V30 15 2 12 16
M  V30 16 1 13 17
M  V30 17 2 15 18
M  V30 18 1 17 19
M  V30 19 1 18 20
M  V30 20 1 20 21
M  V30 21 1 21 22
M  V30 22 1 22 23
M  V30 23 1 23 24
M  V30 24 1 16 18
M  V30 END BOND
M  V30 BEGIN COLLECTION
M  V30 MDLV30/STERAC1 ATOMS=(1 7)
M  V30 END COLLECTION
M  V30 END CTAB
M  END
>  <Molecule Name>
p-Butoxycinnamic acid, 2-ethyl-n-hexyl ester

>  <Activity Label>
0

>  <SMILES>
CCCCC(CC)COC(C=Cc(cc1)ccc1OCCCC)=O

>  <Molecular Formula>
C21H32O3

>  <InChIKey>
NWSWTXGGTKZDFO-UHFFFAOYSA-N

>  <Repellency>
Inactive

>  <Reference DOI>
10.3390/toxics11100837

>  <Target Organism>
Not applied

$$$$
Compound 1140
Actelion Java MolfileCreator 2.0

  0  0  0  0  0  0              0 V3000
M  V30 BEGIN CTAB
M  V30 COUNTS 24 24 0 0 0
M  V30 BEGIN ATOM
M  V30 1 Cl 0.0 0.0 0.0 0
M  V30 2 C -1.3006 0.7448 0.0 0
M  V30 3 C -2.6012 0.0 0.0 0
M  V30 4 C -1.3006 2.2464 0.0 0
M  V30 5 Cl -2.6012 -1.5016 0.0 0
M  V30 6 C -3.9018 0.7448 0.0 0
M  V30 7 Cl 0.0 3.0032 0.0 0
M  V30 8 C -2.6012 2.9913 0.0 0
M  V30 9 Cl -5.2024 -0.0118 0.0 0
M  V30 10 C -3.9018 2.2464 0.0 0
M  V30 11 Cl -2.6012 4.4929 0.0 0
M  V30 12 O -5.2024 2.9913 0.0 0
M  V30 13 C -6.503 2.2464 0.0 0
M  V30 14 C -7.8036 2.9913 0.0 0
M  V30 15 O -7.8036 4.4929 0.0 0
M  V30 16 O -9.1042 2.2464 0.0 0
M  V30 17 C -10.4048 2.9913 0.0 0
M  V30 18 C -11.7054 2.2464 0.0 0 CFG=2
M  V30 19 C -13.006 2.9913 0.0 0
M  V30 20 C -11.7054 0.7448 0.0 0
M  V30 21 C -14.3066 2.2464 0.0 0
M  V30 22 C -10.4048 0.0 0.0 0
M  V30 23 C -15.6072 2.9913 0.0 0
M  V30 24 C -16.9078 2.2464 0.0 0
M  V30 END ATOM
M  V30 BEGIN BOND
M  V30 1 1 1 2
M  V30 2 2 2 3
M  V30 3 1 2 4
M  V30 4 1 3 5
M  V30 5 1 3 6
M  V30 6 1 4 7
M  V30 7 2 4 8
M  V30 8 1 6 9
M  V30 9 2 6 10
M  V30 10 1 8 11
M  V30 11 1 10 12
M  V30 12 1 12 13
M  V30 13 1 13 14
M  V30 14 2 14 15
M  V30 15 1 14 16
M  V30 16 1 16 17
M  V30 17 1 18 17 CFG=1
M  V30 18 1 18 19
M  V30 19 1 18 20
M  V30 20 1 19 21
M  V30 21 1 20 22
M  V30 22 1 21 23
M  V30 23 1 23 24
M  V30 24 1 8 10
M  V30 END BOND
M  V30 BEGIN COLLECTION
M  V30 MDLV30/STERAC1 ATOMS=(1 18)
M  V30 END COLLECTION
M  V30 END CTAB
M  END
>  <Molecule Name>
Pentachlorophenoxyacetic acid, 2-ethylhexyl ester

>  <Activity Label>
0

>  <SMILES>
CCCCC(CC)COC(COc(c(Cl)c(c(Cl)c1Cl)Cl)c1Cl)=O

>  <Molecular Formula>
C16H19O3Cl5

>  <InChIKey>
QNGLBADEKLNPBW-UHFFFAOYSA-N

>  <Repellency>
Inactive

>  <Reference DOI>
10.3390/toxics11100837

>  <Target Organism>
Not applied

$$$$
Compound 1141
Actelion Java MolfileCreator 2.0

  0  0  0  0  0  0              0 V3000
M  V30 BEGIN CTAB
M  V30 COUNTS 24 26 0 0 0
M  V30 BEGIN ATOM
M  V30 1 O 0.0 0.0 0.0 0
M  V30 2 C -1.2995 0.7442 0.0 0
M  V30 3 O -2.599 -0.0118 0.0 0
M  V30 4 C -1.2995 2.2446 0.0 0 CFG=1
M  V30 5 C -3.8985 0.7324 0.0 0
M  V30 6 C 0.0 2.9888 0.0 0 CFG=1
M  V30 7 C -2.599 2.9888 0.0 0
M  V30 8 C 0.0 1.4885 0.0 0
M  V30 9 C -5.198 -0.0236 0.0 0
M  V30 10 C 0.0 4.4892 0.0 0 CFG=1
M  V30 11 C 1.2995 2.2327 0.0 0
M  V30 12 C -2.599 4.4892 0.0 0
M  V30 13 C 1.2995 5.2334 0.0 0 CFG=2
M  V30 14 C -1.2995 5.2334 0.0 0
M  V30 15 C 0.0 5.9895 0.0 0
M  V30 16 C 2.599 2.977 0.0 0
M  V30 17 C 2.599 4.4774 0.0 0
M  V30 18 C 1.2995 6.7338 0.0 0
M  V30 19 C 3.8985 5.2216 0.0 0
M  V30 20 C 2.599 7.478 0.0 0
M  V30 21 C 3.8985 6.722 0.0 0
M  V30 22 C 5.198 7.4662 0.0 0
M  V30 23 C 6.4975 6.7101 0.0 0
M  V30 24 C 5.198 8.9666 0.0 0
M  V30 END ATOM
M  V30 BEGIN BOND
M  V30 1 2 1 2
M  V30 2 1 2 3
M  V30 3 1 2 4
M  V30 4 1 3 5
M  V30 5 1 4 6
M  V30 6 1 4 7
M  V30 7 1 4 8 CFG=1
M  V30 8 1 5 9
M  V30 9 1 6 10
M  V30 10 1 6 11 CFG=1
M  V30 11 1 7 12
M  V30 12 1 10 13
M  V30 13 1 10 14
M  V30 14 1 10 15 CFG=1
M  V30 15 1 11 16
M  V30 16 1 13 17
M  V30 17 1 13 18 CFG=1
M  V30 18 1 17 19
M  V30 19 1 18 20
M  V30 20 2 19 21
M  V30 21 1 21 22
M  V30 22 1 22 23
M  V30 23 1 22 24
M  V30 24 1 12 14
M  V30 25 2 16 17
M  V30 26 1 20 21
M  V30 END BOND
M  V30 BEGIN COLLECTION
M  V30 MDLV30/STEABS ATOMS=(4 4 6 10 13)
M  V30 END COLLECTION
M  V30 END CTAB
M  END
>  <Molecule Name>
Abietic acid, ethyl ester

>  <Activity Label>
0

>  <SMILES>
CCOC([C@](C)(CCC1)[C@H]2[C@@]1(C)[C@@H](CCC(C(C)C)=C1)C1=CC2)=O

>  <Molecular Formula>
C22H34O2

>  <InChIKey>
AGUBCDYYAKENKG-YVNJGZBMSA-N

>  <Repellency>
Inactive

>  <Reference DOI>
10.3390/toxics11100837

>  <Target Organism>
Not applied

$$$$
Compound 1142
Actelion Java MolfileCreator 2.0

  0  0  0  0  0  0              0 V3000
M  V30 BEGIN CTAB
M  V30 COUNTS 24 26 0 0 0
M  V30 BEGIN ATOM
M  V30 1 O 0.0 0.0 0.0 0
M  V30 2 C 1.2986 -0.7555 0.0 0
M  V30 3 O 1.2986 -2.2549 0.0 0
M  V30 4 C 2.5972 -0.0118 0.0 0
M  V30 5 C 0.0 -2.9986 0.0 0
M  V30 6 C 2.5972 1.4875 0.0 0
M  V30 7 C 3.8959 -0.7673 0.0 0
M  V30 8 C 0.0 -4.498 0.0 0
M  V30 9 C 1.2986 2.2312 0.0 0
M  V30 10 C 3.8959 2.2312 0.0 0
M  V30 11 C 5.1945 -0.0236 0.0 0
M  V30 12 O 1.2159 -5.3834 0.0 0
M  V30 13 C -1.2159 -5.3834 0.0 0
M  V30 14 O 1.2986 3.7306 0.0 0
M  V30 15 O 0.0 1.4757 0.0 0
M  V30 16 C 5.1945 1.4757 0.0 0
M  V30 17 C 0.7555 -6.8119 0.0 0
M  V30 18 C -0.7555 -6.8119 0.0 0
M  V30 19 C -1.2986 2.2194 0.0 0
M  V30 20 C -2.5972 1.4639 0.0 0
M  V30 21 O -2.7507 -0.0236 0.0 0
M  V30 22 C -3.9667 2.0778 0.0 0
M  V30 23 C -4.2146 -0.3305 0.0 0
M  V30 24 C -4.9702 0.968 0.0 0
M  V30 END ATOM
M  V30 BEGIN BOND
M  V30 1 2 1 2
M  V30 2 1 2 3
M  V30 3 1 2 4
M  V30 4 1 3 5
M  V30 5 2 4 6
M  V30 6 1 4 7
M  V30 7 1 5 8
M  V30 8 1 6 9
M  V30 9 1 6 10
M  V30 10 2 7 11
M  V30 11 1 8 12
M  V30 12 1 8 13
M  V30 13 2 9 14
M  V30 14 1 9 15
M  V30 15 2 10 16
M  V30 16 1 12 17
M  V30 17 1 13 18
M  V30 18 1 15 19
M  V30 19 1 19 20
M  V30 20 1 20 21
M  V30 21 1 20 22
M  V30 22 1 21 23
M  V30 23 1 22 24
M  V30 24 1 11 16
M  V30 25 1 17 18
M  V30 26 1 23 24
M  V30 END BOND
M  V30 END CTAB
M  END
>  <Molecule Name>
Phthalic acid, ditetrahydrofurfuryl ester

>  <Activity Label>
0

>  <SMILES>
O=C(c(cccc1)c1C(OCC1OCCC1)=O)OCC1OCCC1

>  <Molecular Formula>
C18H22O6

>  <InChIKey>
FVNABQUYTVWAOS-UHFFFAOYSA-N

>  <Repellency>
Inactive

>  <Reference DOI>
10.3390/toxics11100837

>  <Target Organism>
Not applied

$$$$
Compound 1143
Actelion Java MolfileCreator 2.0

  0  0  0  0  0  0              0 V3000
M  V30 BEGIN CTAB
M  V30 COUNTS 24 23 0 0 0
M  V30 BEGIN ATOM
M  V30 1 O 0.0 0.0 0.0 0
M  V30 2 C 0.0 -1.4802 0.0 0
M  V30 3 O 1.2888 -2.2203 0.0 0
M  V30 4 C -1.2888 -2.2203 0.0 0
M  V30 5 C 2.5776 -1.4802 0.0 0
M  V30 6 C -1.2888 -3.7005 0.0 0
M  V30 7 C -2.5776 -1.4802 0.0 0
M  V30 8 C 3.8664 -2.2203 0.0 0
M  V30 9 O 0.0 -4.4406 0.0 0
M  V30 10 O -2.7307 -4.7468 0.0 0
M  V30 11 C -3.8664 -2.2203 0.0 0
M  V30 12 C -2.5776 0.0 0.0 0
M  V30 13 C -2.5648 -5.9335 0.0 0
M  V30 14 C -3.8664 -3.7005 0.0 0
M  V30 15 C -5.1552 -1.4802 0.0 0
M  V30 16 C -3.8536 -6.6736 0.0 0
M  V30 17 O -2.2458 -4.5554 0.0 0
M  V30 18 O -5.1552 -4.4406 0.0 0
M  V30 19 O -5.1552 0.0 0.0 0
M  V30 20 O -6.444 -2.2203 0.0 0
M  V30 21 C -5.1552 -5.9208 0.0 0
M  V30 22 C -7.7328 -1.4802 0.0 0
M  V30 23 C -6.444 -6.6609 0.0 0
M  V30 24 C -9.0216 -2.2203 0.0 0
M  V30 END ATOM
M  V30 BEGIN BOND
M  V30 1 2 1 2
M  V30 2 1 2 3
M  V30 3 1 2 4
M  V30 4 1 3 5
M  V30 5 1 4 6
M  V30 6 1 4 7
M  V30 7 1 5 8
M  V30 8 2 6 9
M  V30 9 1 6 10
M  V30 10 1 7 11
M  V30 11 1 7 12
M  V30 12 1 10 13
M  V30 13 1 11 14
M  V30 14 1 11 15
M  V30 15 1 13 16
M  V30 16 2 14 17
M  V30 17 1 14 18
M  V30 18 2 15 19
M  V30 19 1 15 20
M  V30 20 1 18 21
M  V30 21 1 20 22
M  V30 22 1 21 23
M  V30 23 1 22 24
M  V30 END BOND
M  V30 END CTAB
M  END
>  <Molecule Name>
Ethylidenedimalonic acid, tetraethyl ester

>  <Activity Label>
0

>  <SMILES>
CCOC(C(C(C)C(C(OCC)=O)C(OCC)=O)C(OCC)=O)=O

>  <Molecular Formula>
C16H26O8

>  <InChIKey>
IFGLAWFQSXOXIO-UHFFFAOYSA-N

>  <Repellency>
Inactive

>  <Reference DOI>
10.3390/toxics11100837

>  <Target Organism>
Not applied

$$$$
Compound 1144
Actelion Java MolfileCreator 2.0

  0  0  0  0  0  0              0 V3000
M  V30 BEGIN CTAB
M  V30 COUNTS 24 23 0 0 0
M  V30 BEGIN ATOM
M  V30 1 O 0.0 0.0 0.0 0
M  V30 2 C 0.0 -1.5025 0.0 0
M  V30 3 O 1.3014 -2.2479 0.0 0
M  V30 4 C -1.3014 -2.2479 0.0 0
M  V30 5 C 2.6028 -1.5025 0.0 0
M  V30 6 C -2.6028 -1.5025 0.0 0
M  V30 7 C 3.9042 -2.2479 0.0 0
M  V30 8 C -3.9042 -2.2479 0.0 0
M  V30 9 C 5.2056 -1.5025 0.0 0
M  V30 10 C -5.2056 -1.5025 0.0 0
M  V30 11 C 6.5071 -2.2479 0.0 0
M  V30 12 C -6.5071 -2.2479 0.0 0
M  V30 13 C 7.8085 -1.5025 0.0 0
M  V30 14 C -7.8085 -1.5025 0.0 0
M  V30 15 C -9.1099 -2.2479 0.0 0
M  V30 16 C -10.4113 -1.5025 0.0 0
M  V30 17 C -11.7128 -2.2479 0.0 0
M  V30 18 O -11.7128 -3.7504 0.0 0
M  V30 19 O -13.0142 -1.5025 0.0 0
M  V30 20 C -14.3156 -2.2479 0.0 0
M  V30 21 C -15.617 -1.5025 0.0 0
M  V30 22 C -16.9185 -2.2479 0.0 0
M  V30 23 C -18.2199 -1.5025 0.0 0
M  V30 24 C -19.5213 -2.2479 0.0 0
M  V30 END ATOM
M  V30 BEGIN BOND
M  V30 1 2 1 2
M  V30 2 1 2 3
M  V30 3 1 2 4
M  V30 4 1 3 5
M  V30 5 1 4 6
M  V30 6 1 5 7
M  V30 7 1 6 8
M  V30 8 1 7 9
M  V30 9 1 8 10
M  V30 10 1 9 11
M  V30 11 1 10 12
M  V30 12 1 11 13
M  V30 13 1 12 14
M  V30 14 1 14 15
M  V30 15 1 15 16
M  V30 16 1 16 17
M  V30 17 2 17 18
M  V30 18 1 17 19
M  V30 19 1 19 20
M  V30 20 1 20 21
M  V30 21 1 21 22
M  V30 22 1 22 23
M  V30 23 1 23 24
M  V30 END BOND
M  V30 END CTAB
M  END
>  <Molecule Name>
Sebacic acid, diamyl ester

>  <Activity Label>
0

>  <SMILES>
CCCCCOC(CCCCCCCCC(OCCCCC)=O)=O

>  <Molecular Formula>
C20H38O4

>  <InChIKey>
WZURZWRVLHOHAS-UHFFFAOYSA-N

>  <Repellency>
Inactive

>  <Reference DOI>
10.3390/toxics11100837

>  <Target Organism>
Not applied

$$$$
Compound 1145
Actelion Java MolfileCreator 2.0

  0  0  0  0  0  0              0 V3000
M  V30 BEGIN CTAB
M  V30 COUNTS 24 23 0 0 0
M  V30 BEGIN ATOM
M  V30 1 O 0.0 0.0 0.0 0
M  V30 2 C 0.0 1.5025 0.0 0
M  V30 3 O 1.3014 2.2479 0.0 0
M  V30 4 C -1.3014 2.2479 0.0 0
M  V30 5 C 2.6028 1.5025 0.0 0
M  V30 6 C -2.6028 1.5025 0.0 0
M  V30 7 C 3.9042 2.2479 0.0 0
M  V30 8 C -3.9042 2.2479 0.0 0
M  V30 9 C 5.2056 1.5025 0.0 0
M  V30 10 O -3.9042 3.7504 0.0 0
M  V30 11 O -5.2056 1.5025 0.0 0
M  V30 12 C 6.5071 2.2479 0.0 0
M  V30 13 C -6.5071 2.2479 0.0 0
M  V30 14 C 7.8085 1.5025 0.0 0
M  V30 15 C -7.8085 1.5025 0.0 0
M  V30 16 C 9.1099 2.2479 0.0 0
M  V30 17 C -9.1099 2.2479 0.0 0
M  V30 18 C 10.4113 1.5025 0.0 0
M  V30 19 C -10.4113 1.5025 0.0 0
M  V30 20 C 11.7128 2.2479 0.0 0
M  V30 21 C -11.7128 2.2479 0.0 0
M  V30 22 C -13.0142 1.5025 0.0 0
M  V30 23 C -14.3156 2.2479 0.0 0
M  V30 24 C -15.617 1.5025 0.0 0
M  V30 END ATOM
M  V30 BEGIN BOND
M  V30 1 2 1 2
M  V30 2 1 2 3
M  V30 3 1 2 4
M  V30 4 1 3 5
M  V30 5 1 4 6
M  V30 6 1 5 7
M  V30 7 1 6 8
M  V30 8 1 7 9
M  V30 9 2 8 10
M  V30 10 1 8 11
M  V30 11 1 9 12
M  V30 12 1 11 13
M  V30 13 1 12 14
M  V30 14 1 13 15
M  V30 15 1 14 16
M  V30 16 1 15 17
M  V30 17 1 16 18
M  V30 18 1 17 19
M  V30 19 1 18 20
M  V30 20 1 19 21
M  V30 21 1 21 22
M  V30 22 1 22 23
M  V30 23 1 23 24
M  V30 END BOND
M  V30 END CTAB
M  END
>  <Molecule Name>
Succinic acid, dioctyl ester

>  <Activity Label>
0

>  <SMILES>
CCCCCCCCOC(CCC(OCCCCCCCC)=O)=O

>  <Molecular Formula>
C20H38O4

>  <InChIKey>
KWABLUYIOFEZOY-UHFFFAOYSA-N

>  <Repellency>
Inactive

>  <Reference DOI>
10.3390/toxics11100837

>  <Target Organism>
Not applied

$$$$
Compound 1146
Actelion Java MolfileCreator 2.0

  0  0  0  0  0  0              0 V3000
M  V30 BEGIN CTAB
M  V30 COUNTS 24 23 0 0 0
M  V30 BEGIN ATOM
M  V30 1 O 0.0 0.0 0.0 0
M  V30 2 C 0.0 -1.5019 0.0 0
M  V30 3 O -1.3008 -2.2469 0.0 0
M  V30 4 C 1.3008 -2.2469 0.0 0
M  V30 5 C -2.6017 -1.5019 0.0 0
M  V30 6 C 2.6017 -1.5019 0.0 0
M  V30 7 C -3.9026 -2.2469 0.0 0
M  V30 8 C 3.9026 -2.2469 0.0 0
M  V30 9 C -5.2035 -1.5019 0.0 0
M  V30 10 C 5.2035 -1.5019 0.0 0
M  V30 11 C -6.5044 -2.2469 0.0 0
M  V30 12 C 6.5044 -2.2469 0.0 0
M  V30 13 C 7.8053 -1.5019 0.0 0
M  V30 14 C 9.1061 -2.2469 0.0 0
M  V30 15 C 10.407 -1.5019 0.0 0
M  V30 16 C 11.7079 -2.2469 0.0 0
M  V30 17 C 11.7079 -3.7489 0.0 0
M  V30 18 C 13.0088 -4.4939 0.0 0
M  V30 19 C 13.0088 -5.9958 0.0 0
M  V30 20 C 14.3097 -6.7409 0.0 0
M  V30 21 C 14.3097 -8.2428 0.0 0
M  V30 22 C 15.6106 -8.9879 0.0 0
M  V30 23 C 15.6106 -10.4898 0.0 0
M  V30 24 C 16.9115 -11.2467 0.0 0
M  V30 END ATOM
M  V30 BEGIN BOND
M  V30 1 2 1 2
M  V30 2 1 2 3
M  V30 3 1 2 4
M  V30 4 1 3 5
M  V30 5 1 4 6
M  V30 6 1 5 7
M  V30 7 1 6 8
M  V30 8 1 7 9
M  V30 9 1 8 10
M  V30 10 1 9 11
M  V30 11 1 10 12
M  V30 12 1 12 13
M  V30 13 1 13 14
M  V30 14 1 14 15
M  V30 15 2 15 16
M  V30 16 1 16 17
M  V30 17 1 17 18
M  V30 18 1 18 19
M  V30 19 1 19 20
M  V30 20 1 20 21
M  V30 21 1 21 22
M  V30 22 1 22 23
M  V30 23 1 23 24
M  V30 END BOND
M  V30 END CTAB
M  END
>  <Molecule Name>
Oleic acid, n-butyl ester

>  <Activity Label>
0

>  <SMILES>
CCCCCCCC/C=C\CCCCCCCC(OCCCC)=O

>  <Molecular Formula>
C22H42O2

>  <InChIKey>
WIBFFTLQMKKBLZ-SEYXRHQNSA-N

>  <Repellency>
Inactive

>  <Reference DOI>
10.3390/toxics11100837

>  <Target Organism>
Not applied

$$$$
Compound 1147
Actelion Java MolfileCreator 2.0

  0  0  0  0  0  0              0 V3000
M  V30 BEGIN CTAB
M  V30 COUNTS 24 23 0 0 0
M  V30 BEGIN ATOM
M  V30 1 O 0.0 0.0 0.0 0
M  V30 2 C 0.0 -1.4995 0.0 0
M  V30 3 O -1.2988 -2.2552 0.0 0
M  V30 4 C 1.2988 -2.2552 0.0 0
M  V30 5 C -2.5977 -1.5113 0.0 0
M  V30 6 C 2.5977 -1.5113 0.0 0
M  V30 7 C -3.8965 -2.267 0.0 0
M  V30 8 C 3.8965 -2.267 0.0 0
M  V30 9 C -5.1954 -1.5232 0.0 0
M  V30 10 C 5.1954 -1.5232 0.0 0
M  V30 11 C -6.4942 -2.2789 0.0 0
M  V30 12 C 6.4942 -2.2789 0.0 0
M  V30 13 C 7.7931 -1.535 0.0 0
M  V30 14 C 9.092 -2.2907 0.0 0
M  V30 15 C 10.3908 -1.5468 0.0 0
M  V30 16 C 11.6897 -2.3025 0.0 0
M  V30 17 C 12.9885 -1.5586 0.0 0
M  V30 18 C 14.2874 -2.3143 0.0 0
M  V30 19 C 15.5862 -1.5704 0.0 0
M  V30 20 C 16.8851 -2.3261 0.0 0
M  V30 21 C 18.184 -1.5822 0.0 0
M  V30 22 C 19.4828 -2.3379 0.0 0
M  V30 23 C 20.7817 -1.594 0.0 0
M  V30 24 C 22.0805 -2.3497 0.0 0
M  V30 END ATOM
M  V30 BEGIN BOND
M  V30 1 2 1 2
M  V30 2 1 2 3
M  V30 3 1 2 4
M  V30 4 1 3 5
M  V30 5 1 4 6
M  V30 6 1 5 7
M  V30 7 1 6 8
M  V30 8 1 7 9
M  V30 9 1 8 10
M  V30 10 1 9 11
M  V30 11 1 10 12
M  V30 12 1 12 13
M  V30 13 1 13 14
M  V30 14 1 14 15
M  V30 15 1 15 16
M  V30 16 1 16 17
M  V30 17 1 17 18
M  V30 18 1 18 19
M  V30 19 1 19 20
M  V30 20 1 20 21
M  V30 21 1 21 22
M  V30 22 1 22 23
M  V30 23 1 23 24
M  V30 END BOND
M  V30 END CTAB
M  END
>  <Molecule Name>
Stearic acid, butyl ester

>  <Activity Label>
0

>  <SMILES>
CCCCCCCCCCCCCCCCCC(OCCCC)=O

>  <Molecular Formula>
C22H44O2

>  <InChIKey>
ULBTUVJTXULMLP-UHFFFAOYSA-N

>  <Repellency>
Inactive

>  <Reference DOI>
10.3390/toxics11100837

>  <Target Organism>
Not applied

$$$$
Compound 1148
Actelion Java MolfileCreator 2.0

  0  0  0  0  0  0              0 V3000
M  V30 BEGIN CTAB
M  V30 COUNTS 24 23 0 0 0
M  V30 BEGIN ATOM
M  V30 1 O 0.0 0.0 0.0 0
M  V30 2 C -1.2986 -0.7437 0.0 0
M  V30 3 O -2.5973 0.0118 0.0 0
M  V30 4 C -1.2986 -2.2431 0.0 0
M  V30 5 C -2.5973 1.5111 0.0 0
M  V30 6 C -2.5973 -2.9987 0.0 0
M  V30 7 C 0.0 -2.9987 0.0 0
M  V30 8 C -3.8959 2.2667 0.0 0
M  V30 9 C -3.8959 -2.2549 0.0 0
M  V30 10 C 1.2986 -2.2549 0.0 0
M  V30 11 C -3.8959 3.7661 0.0 0
M  V30 12 O -3.8959 -0.7555 0.0 0
M  V30 13 O -5.1946 -3.0105 0.0 0
M  V30 14 O 1.2986 -0.7555 0.0 0
M  V30 15 O 2.5973 -3.0105 0.0 0
M  V30 16 C -5.1946 4.5216 0.0 0
M  V30 17 C -6.4932 -2.2667 0.0 0
M  V30 18 C 3.8959 -2.2667 0.0 0
M  V30 19 C -7.7919 -3.0223 0.0 0
M  V30 20 C 5.1946 -3.0223 0.0 0
M  V30 21 C -9.0906 -2.2785 0.0 0
M  V30 22 C 6.4932 -2.2785 0.0 0
M  V30 23 C -10.3892 -3.0341 0.0 0
M  V30 24 C 7.7919 -3.0341 0.0 0
M  V30 END ATOM
M  V30 BEGIN BOND
M  V30 1 2 1 2
M  V30 2 1 2 3
M  V30 3 1 2 4
M  V30 4 1 3 5
M  V30 5 2 4 6 CFG=2
M  V30 6 1 4 7
M  V30 7 1 5 8
M  V30 8 1 6 9
M  V30 9 1 7 10
M  V30 10 1 8 11
M  V30 11 2 9 12
M  V30 12 1 9 13
M  V30 13 2 10 14
M  V30 14 1 10 15
M  V30 15 1 11 16
M  V30 16 1 13 17
M  V30 17 1 15 18
M  V30 18 1 17 19
M  V30 19 1 18 20
M  V30 20 1 19 21
M  V30 21 1 20 22
M  V30 22 1 21 23
M  V30 23 1 22 24
M  V30 END BOND
M  V30 END CTAB
M  END
>  <Molecule Name>
Aconitic acid, tributyl ester

>  <Activity Label>
0

>  <SMILES>
CCCCOC(CC(C(OCCCC)=O)=CC(OCCCC)=O)=O

>  <Molecular Formula>
C18H30O6

>  <InChIKey>
BANLNYYTSYHBAP-UHFFFAOYSA-N

>  <Repellency>
Inactive

>  <Reference DOI>
10.3390/toxics11100837

>  <Target Organism>
Not applied

$$$$
Compound 1149
Actelion Java MolfileCreator 2.0

  0  0  0  0  0  0              0 V3000
M  V30 BEGIN CTAB
M  V30 COUNTS 24 23 0 0 0
M  V30 BEGIN ATOM
M  V30 1 O 0.0 0.0 0.0 0
M  V30 2 C 0.0 -1.5019 0.0 0
M  V30 3 O -1.3008 -2.2469 0.0 0
M  V30 4 C 1.3008 -2.2469 0.0 0
M  V30 5 C -2.6017 -1.5019 0.0 0
M  V30 6 C 2.6017 -1.5019 0.0 0
M  V30 7 C -3.9026 -2.2469 0.0 0
M  V30 8 C 3.9026 -2.2469 0.0 0
M  V30 9 O -5.2035 -1.5019 0.0 0
M  V30 10 C 5.2035 -1.5019 0.0 0
M  V30 11 C -6.5044 -2.2469 0.0 0
M  V30 12 C 6.5044 -2.2469 0.0 0
M  V30 13 C 7.8053 -1.5019 0.0 0
M  V30 14 C 9.1061 -2.2469 0.0 0
M  V30 15 C 10.407 -1.5019 0.0 0
M  V30 16 C 11.7079 -2.2469 0.0 0
M  V30 17 C 11.7079 -3.7489 0.0 0
M  V30 18 C 13.0088 -4.4939 0.0 0
M  V30 19 C 13.0088 -5.9958 0.0 0
M  V30 20 C 14.3097 -6.7409 0.0 0
M  V30 21 C 14.3097 -8.2428 0.0 0
M  V30 22 C 15.6106 -8.9879 0.0 0
M  V30 23 C 15.6106 -10.4898 0.0 0
M  V30 24 C 16.9115 -11.2467 0.0 0
M  V30 END ATOM
M  V30 BEGIN BOND
M  V30 1 2 1 2
M  V30 2 1 2 3
M  V30 3 1 2 4
M  V30 4 1 3 5
M  V30 5 1 4 6
M  V30 6 1 5 7
M  V30 7 1 6 8
M  V30 8 1 7 9
M  V30 9 1 8 10
M  V30 10 1 9 11
M  V30 11 1 10 12
M  V30 12 1 12 13
M  V30 13 1 13 14
M  V30 14 1 14 15
M  V30 15 2 15 16
M  V30 16 1 16 17
M  V30 17 1 17 18
M  V30 18 1 18 19
M  V30 19 1 19 20
M  V30 20 1 20 21
M  V30 21 1 21 22
M  V30 22 1 22 23
M  V30 23 1 23 24
M  V30 END BOND
M  V30 END CTAB
M  END
>  <Molecule Name>
Oleic acid, 2-methoxyethyl ester

>  <Activity Label>
0

>  <SMILES>
CCCCCCCC/C=C\CCCCCCCC(OCCOC)=O

>  <Molecular Formula>
C21H40O3

>  <InChIKey>
UFARNTYYPHYLGN-KHPPLWFESA-N

>  <Repellency>
Inactive

>  <Reference DOI>
10.3390/toxics11100837

>  <Target Organism>
Not applied

$$$$
Compound 1150
Actelion Java MolfileCreator 2.0

  0  0  0  0  0  0              0 V3000
M  V30 BEGIN CTAB
M  V30 COUNTS 24 23 0 0 0
M  V30 BEGIN ATOM
M  V30 1 O 0.0 0.0 0.0 0
M  V30 2 C 0.0 -1.5026 0.0 0
M  V30 3 O 1.3015 -2.248 0.0 0
M  V30 4 O -1.3015 -2.248 0.0 0
M  V30 5 C 2.603 -1.5026 0.0 0
M  V30 6 C -2.603 -1.5026 0.0 0
M  V30 7 C 3.9045 -2.248 0.0 0
M  V30 8 C -3.9045 -2.248 0.0 0
M  V30 9 C 5.2061 -1.5026 0.0 0
M  V30 10 C -5.2061 -1.5026 0.0 0
M  V30 11 C 6.5076 -2.248 0.0 0
M  V30 12 C -6.5076 -2.248 0.0 0
M  V30 13 C 7.8091 -1.5026 0.0 0
M  V30 14 C -7.8091 -1.5026 0.0 0
M  V30 15 C 9.1107 -2.248 0.0 0
M  V30 16 C -9.1107 -2.248 0.0 0
M  V30 17 C 10.4122 -1.5026 0.0 0
M  V30 18 C -10.4122 -1.5026 0.0 0
M  V30 19 C 11.7137 -2.248 0.0 0
M  V30 20 C -11.7137 -2.248 0.0 0
M  V30 21 C 13.0153 -1.5026 0.0 0
M  V30 22 C -13.0153 -1.5026 0.0 0
M  V30 23 C 14.3168 -2.248 0.0 0
M  V30 24 C -14.3168 -2.248 0.0 0
M  V30 END ATOM
M  V30 BEGIN BOND
M  V30 1 2 1 2
M  V30 2 1 2 3
M  V30 3 1 2 4
M  V30 4 1 3 5
M  V30 5 1 4 6
M  V30 6 1 5 7
M  V30 7 1 6 8
M  V30 8 1 7 9
M  V30 9 1 8 10
M  V30 10 1 9 11
M  V30 11 1 10 12
M  V30 12 1 11 13
M  V30 13 1 12 14
M  V30 14 1 13 15
M  V30 15 1 14 16
M  V30 16 1 15 17
M  V30 17 1 16 18
M  V30 18 1 17 19
M  V30 19 1 18 20
M  V30 20 1 19 21
M  V30 21 1 20 22
M  V30 22 1 21 23
M  V30 23 1 22 24
M  V30 END BOND
M  V30 END CTAB
M  END
>  <Molecule Name>
Carbonic acid, didecyl ester

>  <Activity Label>
0

>  <SMILES>
CCCCCCCCCCOC(OCCCCCCCCCC)=O

>  <Molecular Formula>
C21H42O3

>  <InChIKey>
ZEBJPYUECLCDRQ-UHFFFAOYSA-N

>  <Repellency>
Inactive

>  <Reference DOI>
10.3390/toxics11100837

>  <Target Organism>
Not applied

$$$$
Compound 1151
Actelion Java MolfileCreator 2.0

  0  0  0  0  0  0              0 V3000
M  V30 BEGIN CTAB
M  V30 COUNTS 25 24 0 0 0
M  V30 BEGIN ATOM
M  V30 1 O 0.0 0.0 0.0 0
M  V30 2 C 1.1272 -0.8187 0.0 0
M  V30 3 O 2.4324 -0.0593 0.0 0
M  V30 4 C 1.1272 -2.3256 0.0 0
M  V30 5 C 3.7376 -0.8187 0.0 0
M  V30 6 C -0.1779 -1.5781 0.0 0
M  V30 7 C 2.4324 -1.5781 0.0 0
M  V30 8 C 1.1272 -3.8326 0.0 0
M  V30 9 C 5.0428 -0.0593 0.0 0
M  V30 10 O -0.5339 -0.1898 0.0 0
M  V30 11 O -1.4832 -2.3375 0.0 0
M  V30 12 C 3.7376 -2.3375 0.0 0
M  V30 13 C -0.1779 -4.592 0.0 0
M  V30 14 C -2.7884 -1.5781 0.0 0
M  V30 15 C 5.0428 -1.5899 0.0 0
M  V30 16 C -4.0936 -2.3375 0.0 0
M  V30 17 C 6.3481 -2.3493 0.0 0
M  V30 18 C 7.6533 -1.6018 0.0 0
M  V30 19 C 8.9585 -2.3612 0.0 0
M  V30 20 C 10.2637 -1.6137 0.0 0
M  V30 21 C 11.569 -2.3731 0.0 0
M  V30 22 C 12.8742 -1.6255 0.0 0
M  V30 23 C 14.1794 -2.3849 0.0 0
M  V30 24 C 15.4846 -1.6374 0.0 0
M  V30 25 C 16.7898 -2.3968 0.0 0
M  V30 END ATOM
M  V30 BEGIN BOND
M  V30 1 2 1 2
M  V30 2 1 2 3
M  V30 3 1 2 4
M  V30 4 1 3 5
M  V30 5 1 4 6
M  V30 6 1 4 7
M  V30 7 1 4 8
M  V30 8 1 5 9
M  V30 9 2 6 10
M  V30 10 1 6 11
M  V30 11 1 7 12
M  V30 12 1 8 13
M  V30 13 1 11 14
M  V30 14 1 12 15
M  V30 15 1 14 16
M  V30 16 1 15 17
M  V30 17 1 17 18
M  V30 18 1 18 19
M  V30 19 1 19 20
M  V30 20 1 20 21
M  V30 21 1 21 22
M  V30 22 1 22 23
M  V30 23 1 23 24
M  V30 24 1 24 25
M  V30 END BOND
M  V30 END CTAB
M  END
>  <Molecule Name>
Laurylethylmalonic acid, diethyl ester

>  <Activity Label>
0

>  <SMILES>
CCCCCCCCCCCCC(CC)(C(OCC)=O)C(OCC)=O

>  <Molecular Formula>
C21H40O4

>  <InChIKey>
BVIXCTPGBNCESY-UHFFFAOYSA-N

>  <Repellency>
Inactive

>  <Reference DOI>
10.3390/toxics11100837

>  <Target Organism>
Not applied

$$$$
Compound 1152
Actelion Java MolfileCreator 2.0

  0  0  0  0  0  0              0 V3000
M  V30 BEGIN CTAB
M  V30 COUNTS 25 24 0 0 0
M  V30 BEGIN ATOM
M  V30 1 O 0.0 0.0 0.0 0
M  V30 2 C 0.0 1.5019 0.0 0
M  V30 3 O -1.3009 2.247 0.0 0
M  V30 4 C 1.3009 2.247 0.0 0
M  V30 5 C -2.6018 1.5019 0.0 0
M  V30 6 C 2.6018 1.5019 0.0 0
M  V30 7 C -3.9027 2.247 0.0 0
M  V30 8 C 3.9027 2.247 0.0 0
M  V30 9 C -5.2036 1.5019 0.0 0
M  V30 10 C 5.2036 1.5019 0.0 0
M  V30 11 C -6.5045 2.247 0.0 0
M  V30 12 C 6.5045 2.247 0.0 0
M  V30 13 C -7.8054 1.5019 0.0 0
M  V30 14 C 7.8054 1.5019 0.0 0
M  V30 15 C 9.1064 2.247 0.0 0
M  V30 16 C 10.4073 1.5019 0.0 0
M  V30 17 C 11.7082 2.247 0.0 0
M  V30 18 C 11.7082 3.749 0.0 0
M  V30 19 C 13.0091 4.494 0.0 0
M  V30 20 C 13.0091 5.996 0.0 0
M  V30 21 C 14.31 6.7529 0.0 0
M  V30 22 C 14.31 8.2549 0.0 0
M  V30 23 C 15.6109 8.9999 0.0 0
M  V30 24 C 15.6109 10.5019 0.0 0
M  V30 25 C 16.9119 11.247 0.0 0
M  V30 END ATOM
M  V30 BEGIN BOND
M  V30 1 2 1 2
M  V30 2 1 2 3
M  V30 3 1 2 4
M  V30 4 1 3 5
M  V30 5 1 4 6
M  V30 6 1 5 7
M  V30 7 1 6 8
M  V30 8 1 7 9
M  V30 9 1 8 10
M  V30 10 1 9 11
M  V30 11 1 10 12
M  V30 12 1 11 13
M  V30 13 1 12 14
M  V30 14 1 14 15
M  V30 15 1 15 16
M  V30 16 2 16 17
M  V30 17 1 17 18
M  V30 18 1 18 19
M  V30 19 1 19 20
M  V30 20 1 20 21
M  V30 21 1 21 22
M  V30 22 1 22 23
M  V30 23 1 23 24
M  V30 24 1 24 25
M  V30 END BOND
M  V30 END CTAB
M  END
>  <Molecule Name>
Oleic acid, amyl ester

>  <Activity Label>
0

>  <SMILES>
CCCCCCCC/C=C\CCCCCCCC(OCCCCC)=O

>  <Molecular Formula>
C23H44O2

>  <InChIKey>
YEUKJHYLBPPSQJ-SEYXRHQNSA-N

>  <Repellency>
Inactive

>  <Reference DOI>
10.3390/toxics11100837

>  <Target Organism>
Not applied

$$$$
Compound 1153
Actelion Java MolfileCreator 2.0

  0  0  0  0  0  0              0 V3000
M  V30 BEGIN CTAB
M  V30 COUNTS 25 24 0 0 0
M  V30 BEGIN ATOM
M  V30 1 O 0.0 0.0 0.0 0
M  V30 2 C 0.0 1.497 0.0 0
M  V30 3 O -1.2966 2.2514 0.0 0
M  V30 4 C 1.2966 2.2514 0.0 0
M  V30 5 C -2.5932 1.497 0.0 0
M  V30 6 C 2.5932 1.497 0.0 0
M  V30 7 C -3.8899 2.2514 0.0 0
M  V30 8 C 3.8899 2.2514 0.0 0
M  V30 9 C -5.1865 1.497 0.0 0
M  V30 10 C 5.1865 1.497 0.0 0
M  V30 11 C -6.4831 2.2514 0.0 0
M  V30 12 C 6.4831 2.2514 0.0 0
M  V30 13 C -7.7798 1.497 0.0 0
M  V30 14 C 7.7798 1.497 0.0 0
M  V30 15 C 9.0764 2.2514 0.0 0
M  V30 16 C 10.373 1.497 0.0 0
M  V30 17 C 11.6697 2.2514 0.0 0
M  V30 18 C 12.9663 1.497 0.0 0
M  V30 19 C 14.2629 2.2514 0.0 0
M  V30 20 C 15.5596 1.497 0.0 0
M  V30 21 C 16.8562 2.2514 0.0 0
M  V30 22 C 18.1528 1.497 0.0 0
M  V30 23 C 19.4495 2.2514 0.0 0
M  V30 24 C 20.7461 1.497 0.0 0
M  V30 25 C 22.0427 2.2514 0.0 0
M  V30 END ATOM
M  V30 BEGIN BOND
M  V30 1 2 1 2
M  V30 2 1 2 3
M  V30 3 1 2 4
M  V30 4 1 3 5
M  V30 5 1 4 6
M  V30 6 1 5 7
M  V30 7 1 6 8
M  V30 8 1 7 9
M  V30 9 1 8 10
M  V30 10 1 9 11
M  V30 11 1 10 12
M  V30 12 1 11 13
M  V30 13 1 12 14
M  V30 14 1 14 15
M  V30 15 1 15 16
M  V30 16 1 16 17
M  V30 17 1 17 18
M  V30 18 1 18 19
M  V30 19 1 19 20
M  V30 20 1 20 21
M  V30 21 1 21 22
M  V30 22 1 22 23
M  V30 23 1 23 24
M  V30 24 1 24 25
M  V30 END BOND
M  V30 END CTAB
M  END
>  <Molecule Name>
Stearic acid, amyl ester

>  <Activity Label>
0

>  <SMILES>
CCCCCCCCCCCCCCCCCC(OCCCCC)=O

>  <Molecular Formula>
C23H46O2

>  <InChIKey>
MOQRZWSWPNIGMP-UHFFFAOYSA-N

>  <Repellency>
Inactive

>  <Reference DOI>
10.3390/toxics11100837

>  <Target Organism>
Not applied

$$$$
Compound 1154
Actelion Java MolfileCreator 2.0

  0  0  0  0  0  0              0 V3000
M  V30 BEGIN CTAB
M  V30 COUNTS 25 24 0 0 0
M  V30 BEGIN ATOM
M  V30 1 O 0.0 0.0 0.0 0
M  V30 2 C 1.3004 0.7475 0.0 0
M  V30 3 C -1.3004 0.7475 0.0 0
M  V30 4 C 2.6009 0.0 0.0 0
M  V30 5 C -2.6009 0.0 0.0 0
M  V30 6 C 3.9014 0.7475 0.0 0
M  V30 7 C -3.9014 0.7475 0.0 0
M  V30 8 C 5.2018 0.0 0.0 0
M  V30 9 C -5.2018 0.0 0.0 0
M  V30 10 C 6.5023 0.7475 0.0 0
M  V30 11 C -6.5023 0.7475 0.0 0
M  V30 12 C 7.8028 0.0 0.0 0
M  V30 13 C -7.8028 0.0 0.0 0
M  V30 14 C 9.1032 0.7475 0.0 0
M  V30 15 C -9.1032 0.7475 0.0 0
M  V30 16 C 10.4037 0.0 0.0 0
M  V30 17 C -10.4037 0.0 0.0 0
M  V30 18 C 11.7042 0.7475 0.0 0
M  V30 19 C -11.7042 0.7475 0.0 0
M  V30 20 C 13.0047 0.0 0.0 0
M  V30 21 C -13.0047 0.0 0.0 0
M  V30 22 C 14.3051 0.7475 0.0 0
M  V30 23 C -14.3051 0.7475 0.0 0
M  V30 24 C 15.6056 0.0 0.0 0
M  V30 25 C -15.6056 0.0 0.0 0
M  V30 END ATOM
M  V30 BEGIN BOND
M  V30 1 1 1 2
M  V30 2 1 1 3
M  V30 3 1 2 4
M  V30 4 1 3 5
M  V30 5 1 4 6
M  V30 6 1 5 7
M  V30 7 1 6 8
M  V30 8 1 7 9
M  V30 9 1 8 10
M  V30 10 1 9 11
M  V30 11 1 10 12
M  V30 12 1 11 13
M  V30 13 1 12 14
M  V30 14 1 13 15
M  V30 15 1 14 16
M  V30 16 1 15 17
M  V30 17 1 16 18
M  V30 18 1 17 19
M  V30 19 1 18 20
M  V30 20 1 19 21
M  V30 21 1 20 22
M  V30 22 1 21 23
M  V30 23 1 22 24
M  V30 24 1 23 25
M  V30 END BOND
M  V30 END CTAB
M  END
>  <Molecule Name>
Didodecyl ether

>  <Activity Label>
0

>  <SMILES>
CCCCCCCCCCCCOCCCCCCCCCCCC

>  <Molecular Formula>
C24H50O

>  <InChIKey>
CMCBDXRRFKYBDG-UHFFFAOYSA-N

>  <Repellency>
Inactive

>  <Reference DOI>
10.3390/toxics11100837

>  <Target Organism>
Not applied

$$$$
Compound 1155
Actelion Java MolfileCreator 2.0

  0  0  0  0  0  0              0 V3000
M  V30 BEGIN CTAB
M  V30 COUNTS 25 24 0 0 0
M  V30 BEGIN ATOM
M  V30 1 O 0.0 0.0 0.0 0
M  V30 2 C 0.0 -1.4997 0.0 0
M  V30 3 O -1.2989 -2.2555 0.0 0
M  V30 4 C 1.2989 -2.2555 0.0 0
M  V30 5 C -2.5979 -1.5115 0.0 0
M  V30 6 O 1.2989 -3.7552 0.0 0
M  V30 7 C 2.5979 -1.5115 0.0 0
M  V30 8 C -3.8969 -2.2673 0.0 0
M  V30 9 C 3.8969 -2.2673 0.0 0
M  V30 10 C -5.1959 -1.5233 0.0 0
M  V30 11 C -3.8969 -3.767 0.0 0
M  V30 12 O 3.8969 -3.767 0.0 0
M  V30 13 O 5.1959 -1.5233 0.0 0
M  V30 14 C -6.4949 -2.2791 0.0 0
M  V30 15 C -2.5979 -4.511 0.0 0
M  V30 16 C 6.4949 -2.2791 0.0 0
M  V30 17 C -7.7939 -1.5351 0.0 0
M  V30 18 C 7.7939 -1.5351 0.0 0
M  V30 19 C -9.0929 -2.2909 0.0 0
M  V30 20 C 9.0929 -2.2909 0.0 0
M  V30 21 C 7.7939 -0.0354 0.0 0
M  V30 22 C 10.3919 -1.5469 0.0 0
M  V30 23 C 6.4949 0.7203 0.0 0
M  V30 24 C 11.6909 -2.3027 0.0 0
M  V30 25 C 12.9899 -1.5587 0.0 0
M  V30 END ATOM
M  V30 BEGIN BOND
M  V30 1 2 1 2
M  V30 2 1 2 3
M  V30 3 1 2 4
M  V30 4 1 3 5
M  V30 5 1 4 6
M  V30 6 1 4 7
M  V30 7 1 5 8
M  V30 8 1 7 9
M  V30 9 1 8 10
M  V30 10 1 8 11
M  V30 11 2 9 12
M  V30 12 1 9 13
M  V30 13 1 10 14
M  V30 14 1 11 15
M  V30 15 1 13 16
M  V30 16 1 14 17
M  V30 17 1 16 18
M  V30 18 1 17 19
M  V30 19 1 18 20
M  V30 20 1 18 21
M  V30 21 1 20 22
M  V30 22 1 21 23
M  V30 23 1 22 24
M  V30 24 1 24 25
M  V30 END BOND
M  V30 END CTAB
M  END
>  <Molecule Name>
Malic acid, bis(2-ethylhexyl) ester

>  <Activity Label>
0

>  <SMILES>
CCCCC(CC)COC(CC(C(OCC(CC)CCCC)=O)O)=O

>  <Molecular Formula>
C20H38O5

>  <InChIKey>
ZDVFAKWEMOAQQR-UHFFFAOYSA-N

>  <Repellency>
Inactive

>  <Reference DOI>
10.3390/toxics11100837

>  <Target Organism>
Not applied

$$$$
Compound 1156
Actelion Java MolfileCreator 2.0

  0  0  0  0  0  0              0 V3000
M  V30 BEGIN CTAB
M  V30 COUNTS 25 24 0 0 0
M  V30 BEGIN ATOM
M  V30 1 O 0.0 0.0 0.0 0
M  V30 2 C 0.0 1.497 0.0 0
M  V30 3 O -1.2966 2.2514 0.0 0
M  V30 4 C 1.2966 2.2514 0.0 0
M  V30 5 C -2.5932 1.497 0.0 0
M  V30 6 C 2.5932 1.497 0.0 0
M  V30 7 C -3.8899 2.2514 0.0 0
M  V30 8 C 3.8899 2.2514 0.0 0
M  V30 9 O -5.1865 1.497 0.0 0
M  V30 10 C 5.1865 1.497 0.0 0
M  V30 11 C -6.4831 2.2514 0.0 0
M  V30 12 C 6.4831 2.2514 0.0 0
M  V30 13 C -7.7798 1.497 0.0 0
M  V30 14 C 7.7798 1.497 0.0 0
M  V30 15 C 9.0764 2.2514 0.0 0
M  V30 16 C 10.373 1.497 0.0 0
M  V30 17 C 11.6697 2.2514 0.0 0
M  V30 18 C 12.9663 1.497 0.0 0
M  V30 19 C 14.2629 2.2514 0.0 0
M  V30 20 C 15.5596 1.497 0.0 0
M  V30 21 C 16.8562 2.2514 0.0 0
M  V30 22 C 18.1528 1.497 0.0 0
M  V30 23 C 19.4495 2.2514 0.0 0
M  V30 24 C 20.7461 1.497 0.0 0
M  V30 25 C 22.0427 2.2514 0.0 0
M  V30 END ATOM
M  V30 BEGIN BOND
M  V30 1 2 1 2
M  V30 2 1 2 3
M  V30 3 1 2 4
M  V30 4 1 3 5
M  V30 5 1 4 6
M  V30 6 1 5 7
M  V30 7 1 6 8
M  V30 8 1 7 9
M  V30 9 1 8 10
M  V30 10 1 9 11
M  V30 11 1 10 12
M  V30 12 1 11 13
M  V30 13 1 12 14
M  V30 14 1 14 15
M  V30 15 1 15 16
M  V30 16 1 16 17
M  V30 17 1 17 18
M  V30 18 1 18 19
M  V30 19 1 19 20
M  V30 20 1 20 21
M  V30 21 1 21 22
M  V30 22 1 22 23
M  V30 23 1 23 24
M  V30 24 1 24 25
M  V30 END BOND
M  V30 END CTAB
M  END
>  <Molecule Name>
Stearic acid, beta-ethoxyethyl ester

>  <Activity Label>
0

>  <SMILES>
CCCCCCCCCCCCCCCCCC(OCCOCC)=O

>  <Molecular Formula>
C22H44O3

>  <InChIKey>
MFEWWQYHAZUIDX-UHFFFAOYSA-N

>  <Repellency>
Inactive

>  <Reference DOI>
10.3390/toxics11100837

>  <Target Organism>
Not applied

$$$$
Compound 1157
Actelion Java MolfileCreator 2.0

  0  0  0  0  0  0              0 V3000
M  V30 BEGIN CTAB
M  V30 COUNTS 25 24 0 0 0
M  V30 BEGIN ATOM
M  V30 1 O 0.0 0.0 0.0 0
M  V30 2 C -1.299 0.7558 0.0 0
M  V30 3 O -2.5981 0.0118 0.0 0
M  V30 4 C -1.299 2.2557 0.0 0
M  V30 5 C -3.8972 0.7558 0.0 0
M  V30 6 O -1.299 3.7555 0.0 0
M  V30 7 C 0.0 1.4998 0.0 0
M  V30 8 C -2.5981 1.4998 0.0 0
M  V30 9 C -5.1963 0.0118 0.0 0
M  V30 10 C 1.299 2.2438 0.0 0
M  V30 11 C -3.8972 2.2438 0.0 0
M  V30 12 C -6.4954 0.7558 0.0 0
M  V30 13 O 1.299 3.7437 0.0 0
M  V30 14 O 2.5981 1.488 0.0 0
M  V30 15 O -3.8972 3.7437 0.0 0
M  V30 16 O -5.1963 1.488 0.0 0
M  V30 17 C -7.7945 0.0 0.0 0
M  V30 18 C 3.8972 2.232 0.0 0
M  V30 19 C -6.4954 2.232 0.0 0
M  V30 20 C 5.1963 1.4762 0.0 0
M  V30 21 C -7.7945 1.4762 0.0 0
M  V30 22 C 6.4954 2.2202 0.0 0
M  V30 23 C -9.0936 2.2202 0.0 0
M  V30 24 C 7.7945 1.4644 0.0 0
M  V30 25 C -10.3927 1.4644 0.0 0
M  V30 END ATOM
M  V30 BEGIN BOND
M  V30 1 2 1 2
M  V30 2 1 2 3
M  V30 3 1 2 4
M  V30 4 1 3 5
M  V30 5 1 4 6
M  V30 6 1 4 7
M  V30 7 1 4 8
M  V30 8 1 5 9
M  V30 9 1 7 10
M  V30 10 1 8 11
M  V30 11 1 9 12
M  V30 12 2 10 13
M  V30 13 1 10 14
M  V30 14 2 11 15
M  V30 15 1 11 16
M  V30 16 1 12 17
M  V30 17 1 14 18
M  V30 18 1 16 19
M  V30 19 1 18 20
M  V30 20 1 19 21
M  V30 21 1 20 22
M  V30 22 1 21 23
M  V30 23 1 22 24
M  V30 24 1 23 25
M  V30 END BOND
M  V30 END CTAB
M  END
>  <Molecule Name>
Citric acid, tributyl ester

>  <Activity Label>
0

>  <SMILES>
CCCCOC(CC(CC(OCCCC)=O)(C(OCCCC)=O)O)=O

>  <Molecular Formula>
C18H32O7

>  <InChIKey>
ZFOZVQLOBQUTQQ-UHFFFAOYSA-N

>  <Repellency>
Inactive

>  <Reference DOI>
10.3390/toxics11100837

>  <Target Organism>
Not applied

$$$$
Compound 1158
Actelion Java MolfileCreator 2.0

  0  0  0  0  0  0              0 V3000
M  V30 BEGIN CTAB
M  V30 COUNTS 25 24 0 0 0
M  V30 BEGIN ATOM
M  V30 1 N 0.0 0.0 0.0 0
M  V30 2 C 1.3007 0.7449 0.0 0
M  V30 3 C 0.0 -1.5017 0.0 0
M  V30 4 N 2.6014 1.4899 0.0 0
M  V30 5 C -1.3007 -2.2466 0.0 0
M  V30 6 C 1.3007 -2.2466 0.0 0
M  V30 7 C 2.6014 2.9916 0.0 0
M  V30 8 C -2.6014 -1.5017 0.0 0
M  V30 9 C 3.9021 3.7365 0.0 0
M  V30 10 C 1.3007 3.7365 0.0 0
M  V30 11 C -3.9021 -2.2466 0.0 0
M  V30 12 C 3.9021 5.2383 0.0 0
M  V30 13 C -5.2028 -1.5017 0.0 0
M  V30 14 C -3.9021 -3.7484 0.0 0
M  V30 15 C 5.2028 5.9832 0.0 0
M  V30 16 C -6.5035 -2.2466 0.0 0
M  V30 17 C -2.6014 -4.4933 0.0 0
M  V30 18 C 5.2028 7.485 0.0 0
M  V30 19 C 6.5035 5.2265 0.0 0
M  V30 20 C -7.8042 -1.5017 0.0 0
M  V30 21 C 6.5035 8.2299 0.0 0
M  V30 22 C 6.5035 3.7247 0.0 0
M  V30 23 C -9.105 -2.2466 0.0 0
M  V30 24 C 6.5035 9.7317 0.0 0
M  V30 25 C 7.8042 10.4766 0.0 0
M  V30 END ATOM
M  V30 BEGIN BOND
M  V30 1 2 1 2
M  V30 2 1 1 3
M  V30 3 2 2 4
M  V30 4 1 3 5
M  V30 5 1 3 6
M  V30 6 1 4 7
M  V30 7 1 5 8
M  V30 8 1 7 9
M  V30 9 1 7 10
M  V30 10 1 8 11
M  V30 11 1 9 12
M  V30 12 1 11 13
M  V30 13 1 11 14
M  V30 14 1 12 15
M  V30 15 1 13 16
M  V30 16 1 14 17
M  V30 17 1 15 18
M  V30 18 1 15 19
M  V30 19 1 16 20
M  V30 20 1 18 21
M  V30 21 1 19 22
M  V30 22 1 20 23
M  V30 23 1 21 24
M  V30 24 1 24 25
M  V30 END BOND
M  V30 END CTAB
M  END
>  <Molecule Name>
Bis(1-methyl-4-ethyloctyl)carbodiimide

>  <Activity Label>
0

>  <SMILES>
CCCCC(CC)CCC(C)N=C=NC(C)CCC(CC)CCCC

>  <Molecular Formula>
C23H46N2

>  <InChIKey>
VDLYAMVPVUAFON-UHFFFAOYSA-N

>  <Repellency>
Inactive

>  <Reference DOI>
10.3390/toxics11100837

>  <Target Organism>
Not applied

$$$$
Compound 1159
Actelion Java MolfileCreator 2.0

  0  0  0  0  0  0              0 V3000
M  V30 BEGIN CTAB
M  V30 COUNTS 25 24 0 0 0
M  V30 BEGIN ATOM
M  V30 1 O 0.0 0.0 0.0 0
M  V30 2 C 0.0 -1.5016 0.0 0
M  V30 3 N 1.3006 -2.2464 0.0 0
M  V30 4 C -1.3006 -2.2464 0.0 0
M  V30 5 C 2.6012 -1.5016 0.0 0
M  V30 6 C -2.6012 -1.5016 0.0 0
M  V30 7 C 3.9018 -2.2464 0.0 0
M  V30 8 C -3.9018 -2.2464 0.0 0
M  V30 9 C 5.2024 -1.5016 0.0 0
M  V30 10 C 3.9018 -3.748 0.0 0
M  V30 11 C -5.2024 -1.5016 0.0 0
M  V30 12 C -6.503 -2.2464 0.0 0
M  V30 13 C -7.8036 -1.5016 0.0 0
M  V30 14 C -9.1042 -2.2464 0.0 0
M  V30 15 C -10.4048 -1.5016 0.0 0
M  V30 16 C -11.7054 -2.2464 0.0 0
M  V30 17 C -11.7054 -3.748 0.0 0
M  V30 18 C -13.006 -4.5048 0.0 0 CFG=2
M  V30 19 O -14.3066 -3.7599 0.0 0
M  V30 20 C -13.006 -6.0064 0.0 0
M  V30 21 C -14.3066 -6.7513 0.0 0
M  V30 22 C -14.3066 -8.2529 0.0 0
M  V30 23 C -15.6072 -9.0096 0.0 0
M  V30 24 C -15.6072 -10.5112 0.0 0
M  V30 25 C -16.9078 -11.2561 0.0 0
M  V30 END ATOM
M  V30 BEGIN BOND
M  V30 1 2 1 2
M  V30 2 1 2 3
M  V30 3 1 2 4
M  V30 4 1 3 5
M  V30 5 1 4 6
M  V30 6 1 5 7
M  V30 7 1 6 8
M  V30 8 1 7 9
M  V30 9 1 7 10
M  V30 10 1 8 11
M  V30 11 1 11 12
M  V30 12 1 12 13
M  V30 13 1 13 14
M  V30 14 1 14 15
M  V30 15 2 15 16
M  V30 16 1 16 17
M  V30 17 1 17 18
M  V30 18 1 18 19 CFG=1
M  V30 19 1 18 20
M  V30 20 1 20 21
M  V30 21 1 21 22
M  V30 22 1 22 23
M  V30 23 1 23 24
M  V30 24 1 24 25
M  V30 END BOND
M  V30 BEGIN COLLECTION
M  V30 MDLV30/STEABS ATOMS=(1 18)
M  V30 END COLLECTION
M  V30 END CTAB
M  END
>  <Molecule Name>
N-iso-Butylricinoleamide

>  <Activity Label>
0

>  <SMILES>
CCCCCC[C@H](C/C=C\CCCCCCCC(NCC(C)C)=O)O

>  <Molecular Formula>
C22H43NO2

>  <InChIKey>
KVYUJHJBNYPRSZ-YXAHYSCSSA-N

>  <Repellency>
Inactive

>  <Reference DOI>
10.3390/toxics11100837

>  <Target Organism>
Not applied

$$$$
Compound 1160
Actelion Java MolfileCreator 2.0

  0  0  0  0  0  0              0 V3000
M  V30 BEGIN CTAB
M  V30 COUNTS 25 26 0 0 0
M  V30 BEGIN ATOM
M  V30 1 O 0.0 0.0 0.0 0
M  V30 2 C 0.0 -1.5029 0.0 0
M  V30 3 O 1.3018 -2.2485 0.0 0
M  V30 4 C -1.3018 -2.2485 0.0 0
M  V30 5 C 2.6036 -1.5029 0.0 0
M  V30 6 C -2.6036 -1.5029 0.0 0
M  V30 7 C -1.3018 -3.7515 0.0 0
M  V30 8 C -1.3018 -0.7455 0.0 0
M  V30 9 C 3.9054 -2.2485 0.0 0
M  V30 10 O -2.9468 -0.1301 0.0 0
M  V30 11 O -3.9054 -2.2485 0.0 0
M  V30 12 C -2.6036 -4.5089 0.0 0
M  V30 13 C -2.4261 0.071 0.0 0
M  V30 14 C -5.2072 -1.4911 0.0 0
M  V30 15 C -3.9054 -3.7515 0.0 0
M  V30 16 C -2.6036 -6.0119 0.0 0
M  V30 17 C -2.6036 1.5029 0.0 0
M  V30 18 C -3.9054 -0.7455 0.0 0
M  V30 19 C -6.509 -2.2367 0.0 0
M  V30 20 C -5.2072 -4.4971 0.0 0
M  V30 21 C -3.9054 -6.7694 0.0 0
M  V30 22 C -3.9054 2.2604 0.0 0
M  V30 23 C -5.2072 0.0118 0.0 0
M  V30 24 C -5.2072 -6.0001 0.0 0
M  V30 25 C -5.2072 1.5029 0.0 0
M  V30 END ATOM
M  V30 BEGIN BOND
M  V30 1 2 1 2
M  V30 2 1 2 3
M  V30 3 1 2 4
M  V30 4 1 3 5
M  V30 5 1 4 6
M  V30 6 1 4 7
M  V30 7 1 4 8
M  V30 8 1 5 9
M  V30 9 2 6 10
M  V30 10 1 6 11
M  V30 11 1 7 12
M  V30 12 1 8 13
M  V30 13 1 11 14
M  V30 14 2 12 15
M  V30 15 1 12 16
M  V30 16 2 13 17
M  V30 17 1 13 18
M  V30 18 1 14 19
M  V30 19 1 15 20
M  V30 20 2 16 21
M  V30 21 1 17 22
M  V30 22 2 18 23
M  V30 23 2 20 24
M  V30 24 2 22 25
M  V30 25 1 21 24
M  V30 26 1 23 25
M  V30 END BOND
M  V30 END CTAB
M  END
>  <Molecule Name>
Dibenzylmalonic acid, diethyl ester

>  <Activity Label>
0

>  <SMILES>
CCOC(C(Cc1ccccc1)(Cc1ccccc1)C(OCC)=O)=O

>  <Molecular Formula>
C21H24O4

>  <InChIKey>
HLMXVMRWOCZNGP-UHFFFAOYSA-N

>  <Repellency>
Inactive

>  <Reference DOI>
10.3390/toxics11100837

>  <Target Organism>
Not applied

$$$$
Compound 1161
Actelion Java MolfileCreator 2.0

  0  0  0  0  0  0              0 V3000
M  V30 BEGIN CTAB
M  V30 COUNTS 25 26 0 0 0
M  V30 BEGIN ATOM
M  V30 1 O 0.0 0.0 0.0 0
M  V30 2 C 0.0 -1.5012 0.0 0
M  V30 3 O 1.3002 -2.2459 0.0 0
M  V30 4 C -1.3002 -2.2459 0.0 0
M  V30 5 C 2.6005 -1.5012 0.0 0
M  V30 6 C -2.6005 -1.5012 0.0 0
M  V30 7 C -1.3002 -3.7472 0.0 0
M  V30 8 C 3.9008 -2.2459 0.0 0
M  V30 9 O -2.6005 0.0 0.0 0
M  V30 10 O -3.9008 -2.2459 0.0 0
M  V30 11 C -2.6005 -4.4919 0.0 0
M  V30 12 C 5.2011 -1.5012 0.0 0
M  V30 13 C -5.2011 -1.5012 0.0 0
M  V30 14 C -3.9008 -3.7353 0.0 0
M  V30 15 C -2.6005 -5.9931 0.0 0
M  V30 16 C 6.5014 -2.2459 0.0 0
M  V30 17 C -6.5014 -2.2459 0.0 0
M  V30 18 C -5.2011 -4.48 0.0 0
M  V30 19 C -3.9008 -6.7378 0.0 0
M  V30 20 C -7.8017 -1.5012 0.0 0
M  V30 21 O -6.6314 -4.019 0.0 0
M  V30 22 C -5.2011 -5.9813 0.0 0
M  V30 23 C -9.102 -2.2459 0.0 0
M  V30 24 C -7.518 -5.2366 0.0 0
M  V30 25 O -6.6314 -6.4423 0.0 0
M  V30 END ATOM
M  V30 BEGIN BOND
M  V30 1 2 1 2
M  V30 2 1 2 3
M  V30 3 1 2 4
M  V30 4 1 3 5
M  V30 5 1 4 6
M  V30 6 2 4 7
M  V30 7 1 5 8
M  V30 8 2 6 9
M  V30 9 1 6 10
M  V30 10 1 7 11
M  V30 11 1 8 12
M  V30 12 1 10 13
M  V30 13 2 11 14
M  V30 14 1 11 15
M  V30 15 1 12 16
M  V30 16 1 13 17
M  V30 17 1 14 18
M  V30 18 2 15 19
M  V30 19 1 17 20
M  V30 20 1 18 21
M  V30 21 2 18 22
M  V30 22 1 20 23
M  V30 23 1 21 24
M  V30 24 1 22 25
M  V30 25 1 19 22
M  V30 26 1 24 25
M  V30 END BOND
M  V30 END CTAB
M  END
>  <Molecule Name>
Piperonylidenemalonic acid, di-n-butyl ester

>  <Activity Label>
0

>  <SMILES>
CCCCOC(C(C(OCCCC)=O)=Cc(cc1)cc2c1OCO2)=O

>  <Molecular Formula>
C19H24O6

>  <InChIKey>
BRPCDBOLJABVNH-UHFFFAOYSA-N

>  <Repellency>
Inactive

>  <Reference DOI>
10.3390/toxics11100837

>  <Target Organism>
Not applied

$$$$
Compound 1162
Actelion Java MolfileCreator 2.0

  0  0  0  0  0  0              0 V3000
M  V30 BEGIN CTAB
M  V30 COUNTS 25 25 0 0 0
M  V30 BEGIN ATOM
M  V30 1 O 0.0 0.0 0.0 0
M  V30 2 C 0.0 -1.5015 0.0 0
M  V30 3 O -1.3005 -2.2463 0.0 0
M  V30 4 C 1.3005 -2.2463 0.0 0
M  V30 5 C -2.601 -1.5015 0.0 0
M  V30 6 C 2.601 -1.5015 0.0 0
M  V30 7 C -3.9016 -2.2463 0.0 0 CFG=2
M  V30 8 C 3.9016 -2.2463 0.0 0
M  V30 9 C -5.2021 -1.5015 0.0 0
M  V30 10 C -3.9016 -3.7479 0.0 0
M  V30 11 C 5.2021 -1.4897 0.0 0
M  V30 12 C 3.9016 -3.7479 0.0 0
M  V30 13 C -6.5027 -2.2463 0.0 0
M  V30 14 C -2.601 -4.4927 0.0 0
M  V30 15 C 6.5027 -2.2345 0.0 0
M  V30 16 C 5.2021 -4.4927 0.0 0
M  V30 17 C -7.8032 -1.5015 0.0 0
M  V30 18 C 6.5027 -3.7361 0.0 0
M  V30 19 C -9.1038 -2.2463 0.0 0
M  V30 20 O 7.8032 -4.4809 0.0 0
M  V30 21 C 7.8032 -5.9825 0.0 0
M  V30 22 C 9.1038 -6.7273 0.0 0
M  V30 23 C 9.1038 -8.2289 0.0 0
M  V30 24 C 10.4043 -8.9737 0.0 0
M  V30 25 C 10.4043 -10.4753 0.0 0
M  V30 END ATOM
M  V30 BEGIN BOND
M  V30 1 2 1 2
M  V30 2 1 2 3
M  V30 3 1 2 4
M  V30 4 1 3 5
M  V30 5 2 4 6 CFG=2
M  V30 6 1 7 5 CFG=1
M  V30 7 1 6 8
M  V30 8 1 7 9
M  V30 9 1 7 10
M  V30 10 2 8 11
M  V30 11 1 8 12
M  V30 12 1 9 13
M  V30 13 1 10 14
M  V30 14 1 11 15
M  V30 15 2 12 16
M  V30 16 1 13 17
M  V30 17 2 15 18
M  V30 18 1 17 19
M  V30 19 1 18 20
M  V30 20 1 20 21
M  V30 21 1 21 22
M  V30 22 1 22 23
M  V30 23 1 23 24
M  V30 24 1 24 25
M  V30 25 1 16 18
M  V30 END BOND
M  V30 BEGIN COLLECTION
M  V30 MDLV30/STERAC1 ATOMS=(1 7)
M  V30 END COLLECTION
M  V30 END CTAB
M  END
>  <Molecule Name>
p-Pentoxycinnamic acid, 2-ethylhexyl ester

>  <Activity Label>
0

>  <SMILES>
CCCCCOc1ccc(C=CC(OCC(CC)CCCC)=O)cc1

>  <Molecular Formula>
C22H34O3

>  <InChIKey>
BFPMFLPDHUSSJG-UHFFFAOYSA-N

>  <Repellency>
Inactive

>  <Reference DOI>
10.3390/toxics11100837

>  <Target Organism>
Not applied

$$$$
Compound 1163
Actelion Java MolfileCreator 2.0

  0  0  0  0  0  0              0 V3000
M  V30 BEGIN CTAB
M  V30 COUNTS 25 25 0 0 0
M  V30 BEGIN ATOM
M  V30 1 O 0.0 0.0 0.0 0
M  V30 2 C 0.0 -1.5014 0.0 0
M  V30 3 O -1.3004 -2.2462 0.0 0
M  V30 4 C 1.3004 -2.2462 0.0 0
M  V30 5 C -2.6008 -1.5014 0.0 0
M  V30 6 C 2.6008 -1.5014 0.0 0
M  V30 7 C -3.9013 -2.2462 0.0 0 CFG=2
M  V30 8 C 3.9013 -2.2462 0.0 0
M  V30 9 C -5.2017 -1.5014 0.0 0
M  V30 10 C -3.9013 -3.7476 0.0 0
M  V30 11 C 5.2017 -1.4895 0.0 0
M  V30 12 C 3.9013 -3.7476 0.0 0
M  V30 13 C -6.5021 -2.2462 0.0 0
M  V30 14 C -2.6008 -4.4924 0.0 0
M  V30 15 C 6.5021 -2.2343 0.0 0
M  V30 16 C 5.2017 -4.4924 0.0 0
M  V30 17 C -7.8026 -1.5014 0.0 0
M  V30 18 C 6.5021 -3.7358 0.0 0
M  V30 19 C -9.103 -2.2462 0.0 0
M  V30 20 O 7.8026 -4.4806 0.0 0
M  V30 21 C 7.8026 -5.982 0.0 0
M  V30 22 C 9.103 -6.7268 0.0 0
M  V30 23 C 9.103 -8.2282 0.0 0
M  V30 24 C 10.4035 -8.973 0.0 0
M  V30 25 C 7.8026 -8.9848 0.0 0
M  V30 END ATOM
M  V30 BEGIN BOND
M  V30 1 2 1 2
M  V30 2 1 2 3
M  V30 3 1 2 4
M  V30 4 1 3 5
M  V30 5 2 4 6 CFG=2
M  V30 6 1 7 5 CFG=1
M  V30 7 1 6 8
M  V30 8 1 7 9
M  V30 9 1 7 10
M  V30 10 2 8 11
M  V30 11 1 8 12
M  V30 12 1 9 13
M  V30 13 1 10 14
M  V30 14 1 11 15
M  V30 15 2 12 16
M  V30 16 1 13 17
M  V30 17 2 15 18
M  V30 18 1 17 19
M  V30 19 1 18 20
M  V30 20 1 20 21
M  V30 21 1 21 22
M  V30 22 1 22 23
M  V30 23 1 23 24
M  V30 24 1 23 25
M  V30 25 1 16 18
M  V30 END BOND
M  V30 BEGIN COLLECTION
M  V30 MDLV30/STERAC1 ATOMS=(1 7)
M  V30 END COLLECTION
M  V30 END CTAB
M  END
>  <Molecule Name>
p-iso-Pentoxycinnamic acid, 2-ethylhexyl ester

>  <Activity Label>
0

>  <SMILES>
CCCCC(CC)COC(C=Cc(cc1)ccc1OCCC(C)C)=O

>  <Molecular Formula>
C22H34O3

>  <InChIKey>
IFOXCRJNHMWYCU-UHFFFAOYSA-N

>  <Repellency>
Inactive

>  <Reference DOI>
10.3390/toxics11100837

>  <Target Organism>
Not applied

$$$$
Compound 1164
Actelion Java MolfileCreator 2.0

  0  0  0  0  0  0              0 V3000
M  V30 BEGIN CTAB
M  V30 COUNTS 26 28 0 0 0
M  V30 BEGIN ATOM
M  V30 1 O 0.0 0.0 0.0 0
M  V30 2 C 1.2995 -0.7561 0.0 0
M  V30 3 O 1.2995 -2.2565 0.0 0
M  V30 4 C 2.5991 -0.0118 0.0 0
M  V30 5 C 0.0 -3.0008 0.0 0
M  V30 6 C 2.5991 1.4886 0.0 0
M  V30 7 C 3.8987 -0.7679 0.0 0
M  V30 8 C 0.0 -4.5012 0.0 0
M  V30 9 C 1.2995 2.2329 0.0 0
M  V30 10 C 3.8987 2.2329 0.0 0
M  V30 11 C 5.1983 -0.0236 0.0 0
M  V30 12 C -1.2995 -5.2455 0.0 0
M  V30 13 C 1.2995 -5.2573 0.0 0
M  V30 14 O 1.2995 3.7333 0.0 0
M  V30 15 O 0.0 1.4886 0.0 0
M  V30 16 C 5.1983 1.4767 0.0 0
M  V30 17 C -1.2995 -6.7459 0.0 0
M  V30 18 C 1.2995 -6.7577 0.0 0
M  V30 19 C -1.2995 2.2329 0.0 0
M  V30 20 C 0.0 -7.502 0.0 0
M  V30 21 C -2.5991 1.4886 0.0 0
M  V30 22 C -3.8987 2.2447 0.0 0
M  V30 23 C -2.5991 -0.0118 0.0 0
M  V30 24 C -5.1983 1.5004 0.0 0
M  V30 25 C -3.8987 -0.7561 0.0 0
M  V30 26 C -5.1983 0.0 0.0 0
M  V30 END ATOM
M  V30 BEGIN BOND
M  V30 1 2 1 2
M  V30 2 1 2 3
M  V30 3 1 2 4
M  V30 4 1 3 5
M  V30 5 2 4 6
M  V30 6 1 4 7
M  V30 7 1 5 8
M  V30 8 1 6 9
M  V30 9 1 6 10
M  V30 10 2 7 11
M  V30 11 2 8 12
M  V30 12 1 8 13
M  V30 13 2 9 14
M  V30 14 1 9 15
M  V30 15 2 10 16
M  V30 16 1 12 17
M  V30 17 2 13 18
M  V30 18 1 15 19
M  V30 19 2 17 20
M  V30 20 1 19 21
M  V30 21 2 21 22
M  V30 22 1 21 23
M  V30 23 1 22 24
M  V30 24 2 23 25
M  V30 25 2 24 26
M  V30 26 1 11 16
M  V30 27 1 18 20
M  V30 28 1 25 26
M  V30 END BOND
M  V30 END CTAB
M  END
>  <Molecule Name>
Phthalic acid, dibenzyl ester

>  <Activity Label>
0

>  <SMILES>
O=C(c(cccc1)c1C(OCc1ccccc1)=O)OCc1ccccc1

>  <Molecular Formula>
C22H18O4

>  <InChIKey>
UCVPKAZCQPRWAY-UHFFFAOYSA-N

>  <Repellency>
Inactive

>  <Reference DOI>
10.3390/toxics11100837

>  <Target Organism>
Not applied

$$$$
Compound 1165
Actelion Java MolfileCreator 2.0

  0  0  0  0  0  0              0 V3000
M  V30 BEGIN CTAB
M  V30 COUNTS 26 28 0 0 0
M  V30 BEGIN ATOM
M  V30 1 Cl 0.0 0.0 0.0 0
M  V30 2 C 1.3005 0.7567 0.0 0
M  V30 3 C 2.6011 0.0118 0.0 0
M  V30 4 C 1.3005 2.2582 0.0 0
M  V30 5 O 2.6011 -1.4897 0.0 0
M  V30 6 C 3.9017 0.7567 0.0 0
M  V30 7 C 2.6011 3.0031 0.0 0
M  V30 8 P 1.3005 -2.2346 0.0 0
M  V30 9 C 3.9017 2.2582 0.0 0
M  V30 10 O 2.6011 -2.9795 0.0 0
M  V30 11 O 1.3005 -3.7362 0.0 0
M  V30 12 O 0.0 -1.4897 0.0 0
M  V30 13 C 2.6011 -4.4811 0.0 0
M  V30 14 C -1.3005 -2.2346 0.0 0
M  V30 15 C 3.9017 -3.7362 0.0 0
M  V30 16 C 2.6011 -5.9826 0.0 0
M  V30 17 C -2.6011 -1.4897 0.0 0
M  V30 18 C -1.3005 -3.7362 0.0 0
M  V30 19 Cl 3.9017 -2.2346 0.0 0
M  V30 20 C 5.2023 -4.4811 0.0 0
M  V30 21 C 3.9017 -6.7275 0.0 0
M  V30 22 Cl -2.6011 0.0118 0.0 0
M  V30 23 C -3.9017 -2.2346 0.0 0
M  V30 24 C -2.6011 -4.4811 0.0 0
M  V30 25 C 5.2023 -5.9826 0.0 0
M  V30 26 C -3.9017 -3.7362 0.0 0
M  V30 END ATOM
M  V30 BEGIN BOND
M  V30 1 1 1 2
M  V30 2 2 2 3
M  V30 3 1 2 4
M  V30 4 1 3 5
M  V30 5 1 3 6
M  V30 6 2 4 7
M  V30 7 1 5 8
M  V30 8 2 6 9
M  V30 9 2 8 10
M  V30 10 1 8 11
M  V30 11 1 8 12
M  V30 12 1 11 13
M  V30 13 1 12 14
M  V30 14 2 13 15
M  V30 15 1 13 16
M  V30 16 2 14 17
M  V30 17 1 14 18
M  V30 18 1 15 19
M  V30 19 1 15 20
M  V30 20 2 16 21
M  V30 21 1 17 22
M  V30 22 1 17 23
M  V30 23 2 18 24
M  V30 24 2 20 25
M  V30 25 2 23 26
M  V30 26 1 7 9
M  V30 27 1 21 25
M  V30 28 1 24 26
M  V30 END BOND
M  V30 END CTAB
M  END
>  <Molecule Name>
Phosphoric acid, tri-(o-chlorophenyl) ester

>  <Activity Label>
0

>  <SMILES>
O=P(Oc(cccc1)c1Cl)(Oc(cccc1)c1Cl)Oc(cccc1)c1Cl

>  <Molecular Formula>
C18H12O4Cl3P

>  <InChIKey>
LFRFOEVCFVCHEV-UHFFFAOYSA-N

>  <Repellency>
Inactive

>  <Reference DOI>
10.3390/toxics11100837

>  <Target Organism>
Not applied

$$$$
Compound 1166
Actelion Java MolfileCreator 2.0

  0  0  0  0  0  0              0 V3000
M  V30 BEGIN CTAB
M  V30 COUNTS 26 28 0 0 0
M  V30 BEGIN ATOM
M  V30 1 P 0.0 0.0 0.0 0
M  V30 2 O 1.3001 -0.7446 0.0 0
M  V30 3 O 1.3001 0.7446 0.0 0
M  V30 4 O 0.0 -1.501 0.0 0
M  V30 5 O -1.3001 0.7446 0.0 0
M  V30 6 C 1.3001 2.2456 0.0 0
M  V30 7 C 1.3001 -2.2456 0.0 0
M  V30 8 C -2.6002 0.0 0.0 0
M  V30 9 C 0.0 2.9902 0.0 0
M  V30 10 C 2.6002 2.9902 0.0 0
M  V30 11 C 2.6002 -1.4892 0.0 0
M  V30 12 C 1.3001 -3.7467 0.0 0
M  V30 13 C -3.9003 0.7564 0.0 0
M  V30 14 C -2.6002 -1.501 0.0 0
M  V30 15 C 0.0 4.4913 0.0 0
M  V30 16 C 2.6002 4.4913 0.0 0
M  V30 17 C 3.9003 -2.2338 0.0 0
M  V30 18 C 2.6002 -4.4913 0.0 0
M  V30 19 C -5.2004 0.0118 0.0 0
M  V30 20 C -3.9003 -2.2456 0.0 0
M  V30 21 C 1.3001 5.2359 0.0 0
M  V30 22 C 3.9003 -3.7349 0.0 0
M  V30 23 C -5.2004 -1.4892 0.0 0
M  V30 24 C 1.3001 6.737 0.0 0
M  V30 25 C 5.2004 -4.4795 0.0 0
M  V30 26 C -6.5006 -2.2338 0.0 0
M  V30 END ATOM
M  V30 BEGIN BOND
M  V30 1 2 1 2
M  V30 2 1 1 3
M  V30 3 1 1 4
M  V30 4 1 1 5
M  V30 5 1 3 6
M  V30 6 1 4 7
M  V30 7 1 5 8
M  V30 8 2 6 9
M  V30 9 1 6 10
M  V30 10 2 7 11
M  V30 11 1 7 12
M  V30 12 2 8 13
M  V30 13 1 8 14
M  V30 14 1 9 15
M  V30 15 2 10 16
M  V30 16 1 11 17
M  V30 17 2 12 18
M  V30 18 1 13 19
M  V30 19 2 14 20
M  V30 20 2 15 21
M  V30 21 2 17 22
M  V30 22 2 19 23
M  V30 23 1 21 24
M  V30 24 1 22 25
M  V30 25 1 23 26
M  V30 26 1 16 21
M  V30 27 1 18 22
M  V30 28 1 20 23
M  V30 END BOND
M  V30 END CTAB
M  END
>  <Molecule Name>
Phosphoric acid, tri-p-cresyl ester

>  <Activity Label>
0

>  <SMILES>
Cc(cc1)ccc1OP(Oc1ccc(C)cc1)(Oc1ccc(C)cc1)=O

>  <Molecular Formula>
C21H21O4P

>  <InChIKey>
BOSMZFBHAYFUBJ-UHFFFAOYSA-N

>  <Repellency>
Inactive

>  <Reference DOI>
10.3390/toxics11100837

>  <Target Organism>
Not applied

$$$$
Compound 1167
Actelion Java MolfileCreator 2.0

  0  0  0  0  0  0              0 V3000
M  V30 BEGIN CTAB
M  V30 COUNTS 26 28 0 0 0
M  V30 BEGIN ATOM
M  V30 1 P 0.0 0.0 0.0 0
M  V30 2 O 1.3006 -0.7449 0.0 0
M  V30 3 O 1.3006 0.7449 0.0 0
M  V30 4 O 0.0 -1.5016 0.0 0
M  V30 5 O -1.3006 0.7449 0.0 0
M  V30 6 C 2.6013 0.0 0.0 0
M  V30 7 C -1.3006 -2.2466 0.0 0
M  V30 8 C -1.3006 2.2466 0.0 0
M  V30 9 C 2.6013 -1.5016 0.0 0
M  V30 10 C 3.902 0.7449 0.0 0
M  V30 11 C -2.6013 -1.5016 0.0 0
M  V30 12 C -1.3006 -3.7483 0.0 0
M  V30 13 C 0.0 2.9915 0.0 0
M  V30 14 C -2.6013 2.9915 0.0 0
M  V30 15 C 3.902 -2.2466 0.0 0
M  V30 16 C 1.3006 -2.2466 0.0 0
M  V30 17 C 5.2026 0.0 0.0 0
M  V30 18 C -3.902 -2.2466 0.0 0
M  V30 19 C -2.6013 0.0 0.0 0
M  V30 20 C -2.6013 -4.4932 0.0 0
M  V30 21 C 0.0 4.4932 0.0 0
M  V30 22 C 1.3006 2.2347 0.0 0
M  V30 23 C -2.6013 4.4932 0.0 0
M  V30 24 C 5.2026 -1.5016 0.0 0
M  V30 25 C -3.902 -3.7483 0.0 0
M  V30 26 C -1.3006 5.2381 0.0 0
M  V30 END ATOM
M  V30 BEGIN BOND
M  V30 1 2 1 2
M  V30 2 1 1 3
M  V30 3 1 1 4
M  V30 4 1 1 5
M  V30 5 1 3 6
M  V30 6 1 4 7
M  V30 7 1 5 8
M  V30 8 2 6 9
M  V30 9 1 6 10
M  V30 10 2 7 11
M  V30 11 1 7 12
M  V30 12 2 8 13
M  V30 13 1 8 14
M  V30 14 1 9 15
M  V30 15 1 9 16
M  V30 16 2 10 17
M  V30 17 1 11 18
M  V30 18 1 11 19
M  V30 19 2 12 20
M  V30 20 1 13 21
M  V30 21 1 13 22
M  V30 22 2 14 23
M  V30 23 2 15 24
M  V30 24 2 18 25
M  V30 25 2 21 26
M  V30 26 1 17 24
M  V30 27 1 20 25
M  V30 28 1 23 26
M  V30 END BOND
M  V30 END CTAB
M  END
>  <Molecule Name>
Phosphoric acid, tri-o-cresyl ester

>  <Activity Label>
0

>  <SMILES>
Cc(cccc1)c1OP(Oc1c(C)cccc1)(Oc1c(C)cccc1)=O

>  <Molecular Formula>
C21H21O4P

>  <InChIKey>
YSMRWXYRXBRSND-UHFFFAOYSA-N

>  <Repellency>
Inactive

>  <Reference DOI>
10.3390/toxics11100837

>  <Target Organism>
Not applied

$$$$
Compound 1168
Actelion Java MolfileCreator 2.0

  0  0  0  0  0  0              0 V3000
M  V30 BEGIN CTAB
M  V30 COUNTS 26 26 0 0 0
M  V30 BEGIN ATOM
M  V30 1 O 0.0 0.0 0.0 0
M  V30 2 C -1.3004 0.7566 0.0 0
M  V30 3 O -2.6009 0.0118 0.0 0
M  V30 4 C -1.3004 2.2581 0.0 0
M  V30 5 C -2.6009 -1.4896 0.0 0
M  V30 6 C -2.6009 3.0029 0.0 0
M  V30 7 C 0.0 3.0029 0.0 0
M  V30 8 C -3.9014 -2.2344 0.0 0
M  V30 9 C -3.9014 2.2581 0.0 0
M  V30 10 C -2.6009 4.5044 0.0 0
M  V30 11 C 0.0 4.5044 0.0 0
M  V30 12 O -3.9014 -3.7359 0.0 0
M  V30 13 O -5.2019 -1.4896 0.0 0
M  V30 14 O -3.9014 0.7566 0.0 0
M  V30 15 O -5.2019 3.0029 0.0 0
M  V30 16 C -1.3004 5.2492 0.0 0
M  V30 17 C -5.2019 -4.4807 0.0 0
M  V30 18 C -6.5024 -2.2344 0.0 0
M  V30 19 C -6.5024 2.2581 0.0 0
M  V30 20 C -5.2019 -5.9822 0.0 0
M  V30 21 C -7.8029 3.0029 0.0 0
M  V30 22 O -9.1034 2.2581 0.0 0
M  V30 23 O -7.8029 4.5044 0.0 0
M  V30 24 C -10.4039 3.0029 0.0 0
M  V30 25 C -9.1034 5.261 0.0 0
M  V30 26 C -11.7044 2.2581 0.0 0
M  V30 END ATOM
M  V30 BEGIN BOND
M  V30 1 2 1 2
M  V30 2 1 2 3
M  V30 3 1 2 4
M  V30 4 1 3 5
M  V30 5 2 4 6
M  V30 6 1 4 7
M  V30 7 1 5 8
M  V30 8 1 6 9
M  V30 9 1 6 10
M  V30 10 2 7 11
M  V30 11 1 8 12
M  V30 12 1 8 13
M  V30 13 2 9 14
M  V30 14 1 9 15
M  V30 15 2 10 16
M  V30 16 1 12 17
M  V30 17 1 13 18
M  V30 18 1 15 19
M  V30 19 1 17 20
M  V30 20 1 19 21
M  V30 21 1 21 22
M  V30 22 1 21 23
M  V30 23 1 22 24
M  V30 24 1 23 25
M  V30 25 1 24 26
M  V30 26 1 11 16
M  V30 END BOND
M  V30 END CTAB
M  END
>  <Molecule Name>
Phthalic acid, di(methoxy-ethoxyethyl) ester

>  <Activity Label>
0

>  <SMILES>
CCOC(COC(c(cccc1)c1C(OCC(OC)OCC)=O)=O)OC

>  <Molecular Formula>
C18H26O8

>  <InChIKey>
KSRLEIUXOKHMND-UHFFFAOYSA-N

>  <Repellency>
Inactive

>  <Reference DOI>
10.3390/toxics11100837

>  <Target Organism>
Not applied

$$$$
Compound 1169
Actelion Java MolfileCreator 2.0

  0  0  0  0  0  0              0 V3000
M  V30 BEGIN CTAB
M  V30 COUNTS 26 26 0 0 0
M  V30 BEGIN ATOM
M  V30 1 O 0.0 0.0 0.0 0
M  V30 2 C -1.3012 0.7452 0.0 0
M  V30 3 O -1.3012 2.2476 0.0 0
M  V30 4 C -2.6025 0.0 0.0 0 CFG=1
M  V30 5 C -2.6025 -1.5023 0.0 0
M  V30 6 C -3.9037 0.7452 0.0 0
M  V30 7 C -3.9037 -2.2476 0.0 0
M  V30 8 C -1.3012 -2.2476 0.0 0
M  V30 9 C -5.205 0.0 0.0 0
M  V30 10 C -3.9037 -3.75 0.0 0
M  V30 11 C -1.3012 -3.75 0.0 0
M  V30 12 C -6.5063 0.7452 0.0 0
M  V30 13 C -2.6025 -4.4952 0.0 0
M  V30 14 C -7.8075 0.0 0.0 0
M  V30 15 C -9.1088 0.7452 0.0 0
M  V30 16 C -10.41 0.0 0.0 0
M  V30 17 C -11.7113 0.7452 0.0 0
M  V30 18 C -13.0126 0.0 0.0 0
M  V30 19 C -14.3138 0.7452 0.0 0
M  V30 20 C -15.6151 0.0 0.0 0
M  V30 21 C -16.9164 0.7452 0.0 0
M  V30 22 C -18.2176 0.0 0.0 0
M  V30 23 C -19.5189 0.7452 0.0 0
M  V30 24 C -20.8201 0.0 0.0 0
M  V30 25 C -22.1214 0.7452 0.0 0
M  V30 26 C -23.4227 0.0 0.0 0
M  V30 END ATOM
M  V30 BEGIN BOND
M  V30 1 2 1 2
M  V30 2 1 2 3
M  V30 3 1 2 4
M  V30 4 1 4 5
M  V30 5 1 4 6 CFG=1
M  V30 6 2 5 7
M  V30 7 1 5 8
M  V30 8 1 6 9
M  V30 9 1 7 10
M  V30 10 2 8 11
M  V30 11 1 9 12
M  V30 12 2 10 13
M  V30 13 1 12 14
M  V30 14 1 14 15
M  V30 15 1 15 16
M  V30 16 1 16 17
M  V30 17 1 17 18
M  V30 18 1 18 19
M  V30 19 1 19 20
M  V30 20 1 20 21
M  V30 21 1 21 22
M  V30 22 1 22 23
M  V30 23 1 23 24
M  V30 24 1 24 25
M  V30 25 1 25 26
M  V30 26 1 11 13
M  V30 END BOND
M  V30 BEGIN COLLECTION
M  V30 MDLV30/STERAC1 ATOMS=(1 4)
M  V30 END COLLECTION
M  V30 END CTAB
M  END
>  <Molecule Name>
Phenylstearic acid

>  <Activity Label>
0

>  <SMILES>
CCCCCCCCCCCCCCCCC(C(O)=O)c1ccccc1

>  <Molecular Formula>
C24H40O2

>  <InChIKey>
MKJHXLKVZNDNDB-UHFFFAOYSA-N

>  <Repellency>
Inactive

>  <Reference DOI>
10.3390/toxics11100837

>  <Target Organism>
Not applied

$$$$
Compound 1170
Actelion Java MolfileCreator 2.0

  0  0  0  0  0  0              0 V3000
M  V30 BEGIN CTAB
M  V30 COUNTS 26 26 0 0 0
M  V30 BEGIN ATOM
M  V30 1 O 0.0 0.0 0.0 0
M  V30 2 C 0.0 -1.5015 0.0 0
M  V30 3 O -1.3005 -2.2463 0.0 0
M  V30 4 C 1.3005 -2.2463 0.0 0
M  V30 5 C -2.601 -1.5015 0.0 0
M  V30 6 C 2.601 -1.5015 0.0 0
M  V30 7 C -3.9015 -2.2463 0.0 0 CFG=2
M  V30 8 C 3.9015 -2.2463 0.0 0
M  V30 9 O -4.0552 -3.736 0.0 0
M  V30 10 C -5.2729 -1.6315 0.0 0
M  V30 11 C 5.202 -1.5015 0.0 0
M  V30 12 C -5.5212 -4.0434 0.0 0
M  V30 13 C -6.2779 -2.7428 0.0 0
M  V30 14 C 6.5025 -2.2463 0.0 0
M  V30 15 C 7.803 -1.5015 0.0 0
M  V30 16 C 9.1035 -2.2463 0.0 0
M  V30 17 C 10.404 -1.5015 0.0 0
M  V30 18 C 11.7046 -2.2463 0.0 0
M  V30 19 C 11.7046 -3.7478 0.0 0
M  V30 20 C 13.0051 -4.5045 0.0 0
M  V30 21 C 13.0051 -6.006 0.0 0
M  V30 22 C 14.3056 -6.7626 0.0 0
M  V30 23 C 14.3056 -8.2641 0.0 0
M  V30 24 C 15.6061 -9.009 0.0 0
M  V30 25 C 15.6061 -10.5105 0.0 0
M  V30 26 C 16.9066 -11.2553 0.0 0
M  V30 END ATOM
M  V30 BEGIN BOND
M  V30 1 2 1 2
M  V30 2 1 2 3
M  V30 3 1 2 4
M  V30 4 1 3 5
M  V30 5 1 4 6
M  V30 6 1 7 5 CFG=3
M  V30 7 1 6 8
M  V30 8 1 7 9
M  V30 9 1 7 10
M  V30 10 1 8 11
M  V30 11 1 9 12
M  V30 12 1 10 13
M  V30 13 1 11 14
M  V30 14 1 14 15
M  V30 15 1 15 16
M  V30 16 1 16 17
M  V30 17 2 17 18
M  V30 18 1 18 19
M  V30 19 1 19 20
M  V30 20 1 20 21
M  V30 21 1 21 22
M  V30 22 1 22 23
M  V30 23 1 23 24
M  V30 24 1 24 25
M  V30 25 1 25 26
M  V30 26 1 12 13
M  V30 END BOND
M  V30 BEGIN COLLECTION
M  V30 MDLV30/STERAC1 ATOMS=(1 7)
M  V30 END COLLECTION
M  V30 END CTAB
M  END
>  <Molecule Name>
Oleic acid, tetrahydrofurfuryl ester

>  <Activity Label>
0

>  <SMILES>
CCCCCCCC/C=C\CCCCCCCC(OCC1OCCC1)=O

>  <Molecular Formula>
C23H42O3

>  <InChIKey>
GIPDEPRRXIBGNF-KTKRTIGZSA-N

>  <Repellency>
Inactive

>  <Reference DOI>
10.3390/toxics11100837

>  <Target Organism>
Not applied

$$$$
Compound 1171
Actelion Java MolfileCreator 2.0

  0  0  0  0  0  0              0 V3000
M  V30 BEGIN CTAB
M  V30 COUNTS 26 25 0 0 0
M  V30 BEGIN ATOM
M  V30 1 O 0.0 0.0 0.0 0
M  V30 2 C 0.0 -1.5026 0.0 0
M  V30 3 O -1.3015 -2.2481 0.0 0
M  V30 4 C 1.3015 -2.2481 0.0 0
M  V30 5 C -2.603 -1.5026 0.0 0
M  V30 6 C 2.603 -1.5026 0.0 0
M  V30 7 C -3.9046 -2.2481 0.0 0
M  V30 8 O 3.9046 -2.2481 0.0 0
M  V30 9 C -5.2061 -1.5026 0.0 0
M  V30 10 C 5.2061 -1.5026 0.0 0
M  V30 11 C -6.5076 -2.2481 0.0 0
M  V30 12 C 6.5076 -2.2481 0.0 0
M  V30 13 C -7.8092 -1.5026 0.0 0
M  V30 14 C 7.8092 -1.5026 0.0 0
M  V30 15 C -9.1107 -2.2481 0.0 0
M  V30 16 C 9.1107 -2.2481 0.0 0
M  V30 17 C -10.4123 -1.5026 0.0 0
M  V30 18 C 10.4123 -1.5026 0.0 0
M  V30 19 C -11.7138 -2.2481 0.0 0
M  V30 20 C 11.7138 -2.2481 0.0 0
M  V30 21 C -13.0153 -1.5026 0.0 0
M  V30 22 C 13.0153 -1.5026 0.0 0
M  V30 23 C -14.3169 -2.2481 0.0 0
M  V30 24 C 14.3169 -2.2481 0.0 0
M  V30 25 C 15.6184 -1.5026 0.0 0
M  V30 26 C 16.92 -2.2481 0.0 0
M  V30 END ATOM
M  V30 BEGIN BOND
M  V30 1 2 1 2
M  V30 2 1 2 3
M  V30 3 1 2 4
M  V30 4 1 3 5
M  V30 5 1 4 6
M  V30 6 1 5 7
M  V30 7 1 6 8
M  V30 8 1 7 9
M  V30 9 1 8 10
M  V30 10 1 9 11
M  V30 11 1 10 12
M  V30 12 1 11 13
M  V30 13 1 12 14
M  V30 14 1 13 15
M  V30 15 1 14 16
M  V30 16 1 15 17
M  V30 17 1 16 18
M  V30 18 1 17 19
M  V30 19 1 18 20
M  V30 20 1 19 21
M  V30 21 1 20 22
M  V30 22 1 21 23
M  V30 23 1 22 24
M  V30 24 1 24 25
M  V30 25 1 25 26
M  V30 END BOND
M  V30 END CTAB
M  END
>  <Molecule Name>
beta-n-Decyloxypropionic acid, n-decyl ester

>  <Activity Label>
0

>  <SMILES>
CCCCCCCCCCOCCC(OCCCCCCCCCC)=O

>  <Molecular Formula>
C23H46O3

>  <InChIKey>
DLEARKZRTOOPNN-UHFFFAOYSA-N

>  <Repellency>
Inactive

>  <Reference DOI>
10.3390/toxics11100837

>  <Target Organism>
Not applied

$$$$
Compound 1172
Actelion Java MolfileCreator 2.0

  0  0  0  0  0  0              0 V3000
M  V30 BEGIN CTAB
M  V30 COUNTS 26 25 0 0 0
M  V30 BEGIN ATOM
M  V30 1 P 0.0 0.0 0.0 0
M  V30 2 O -1.3012 -0.7452 0.0 0
M  V30 3 O 1.3012 0.7452 0.0 0
M  V30 4 O 0.0 -1.5023 0.0 0
M  V30 5 O -1.3012 0.7452 0.0 0
M  V30 6 C 2.6024 0.0 0.0 0
M  V30 7 C -1.3012 -2.2476 0.0 0
M  V30 8 C -2.6024 0.0 0.0 0
M  V30 9 C 3.9037 0.7452 0.0 0
M  V30 10 C -1.3012 -3.7499 0.0 0
M  V30 11 C -3.9037 0.7452 0.0 0
M  V30 12 O 5.2049 0.0 0.0 0
M  V30 13 O -2.6024 -4.4952 0.0 0
M  V30 14 O -5.2049 0.0 0.0 0
M  V30 15 C 6.5062 0.7452 0.0 0
M  V30 16 C -2.6024 -5.9975 0.0 0
M  V30 17 C -6.5062 0.7452 0.0 0
M  V30 18 C 7.8074 0.0 0.0 0
M  V30 19 C -3.9037 -6.7428 0.0 0
M  V30 20 C -7.8074 0.0 0.0 0
M  V30 21 C 9.1087 0.7452 0.0 0
M  V30 22 C -3.9037 -8.2451 0.0 0
M  V30 23 C -9.1087 0.7452 0.0 0
M  V30 24 C 10.4099 0.0 0.0 0
M  V30 25 C -5.2049 -8.9904 0.0 0
M  V30 26 C -10.4099 0.0 0.0 0
M  V30 END ATOM
M  V30 BEGIN BOND
M  V30 1 2 1 2
M  V30 2 1 1 3
M  V30 3 1 1 4
M  V30 4 1 1 5
M  V30 5 1 3 6
M  V30 6 1 4 7
M  V30 7 1 5 8
M  V30 8 1 6 9
M  V30 9 1 7 10
M  V30 10 1 8 11
M  V30 11 1 9 12
M  V30 12 1 10 13
M  V30 13 1 11 14
M  V30 14 1 12 15
M  V30 15 1 13 16
M  V30 16 1 14 17
M  V30 17 1 15 18
M  V30 18 1 16 19
M  V30 19 1 17 20
M  V30 20 1 18 21
M  V30 21 1 19 22
M  V30 22 1 20 23
M  V30 23 1 21 24
M  V30 24 1 22 25
M  V30 25 1 23 26
M  V30 END BOND
M  V30 END CTAB
M  END
>  <Molecule Name>
Phosphoric acid, tri(butoxy-ethyl) ester

>  <Activity Label>
0

>  <SMILES>
CCCCOCCOP(OCCOCCCC)(OCCOCCCC)=O

>  <Molecular Formula>
C18H39O7P

>  <InChIKey>
WTLBZVNBAKMVDP-UHFFFAOYSA-N

>  <Repellency>
Inactive

>  <Reference DOI>
10.3390/toxics11100837

>  <Target Organism>
Not applied

$$$$
Compound 1173
Actelion Java MolfileCreator 2.0

  0  0  0  0  0  0              0 V3000
M  V30 BEGIN CTAB
M  V30 COUNTS 26 25 0 0 0
M  V30 BEGIN ATOM
M  V30 1 O 0.0 0.0 0.0 0
M  V30 2 C 0.0 -1.4996 0.0 0
M  V30 3 N -1.2988 -2.2553 0.0 0
M  V30 4 C 1.2988 -2.2553 0.0 0
M  V30 5 C -1.2988 -3.7549 0.0 0
M  V30 6 C -2.5977 -1.5114 0.0 0
M  V30 7 C 2.5977 -1.5114 0.0 0
M  V30 8 C 0.0 -4.4988 0.0 0
M  V30 9 C -3.8966 -2.2671 0.0 0
M  V30 10 C 3.8966 -2.2671 0.0 0
M  V30 11 C 0.0 -5.9984 0.0 0
M  V30 12 C -5.1955 -1.5232 0.0 0
M  V30 13 C 5.1955 -1.5232 0.0 0
M  V30 14 C 1.2988 -6.7542 0.0 0
M  V30 15 C -6.4944 -2.2789 0.0 0
M  V30 16 C 6.4944 -2.2789 0.0 0
M  V30 17 C 7.7933 -1.535 0.0 0
M  V30 18 C 9.0922 -2.2907 0.0 0
M  V30 19 C 10.391 -1.5468 0.0 0
M  V30 20 C 11.6899 -2.3025 0.0 0
M  V30 21 C 12.9888 -1.5586 0.0 0
M  V30 22 C 14.2877 -2.3143 0.0 0
M  V30 23 C 15.5866 -1.5704 0.0 0
M  V30 24 C 16.8855 -2.3261 0.0 0
M  V30 25 C 18.1844 -1.5822 0.0 0
M  V30 26 C 19.4832 -2.3379 0.0 0
M  V30 END ATOM
M  V30 BEGIN BOND
M  V30 1 2 1 2
M  V30 2 1 2 3
M  V30 3 1 2 4
M  V30 4 1 3 5
M  V30 5 1 3 6
M  V30 6 1 4 7
M  V30 7 1 5 8
M  V30 8 1 6 9
M  V30 9 1 7 10
M  V30 10 1 8 11
M  V30 11 1 9 12
M  V30 12 1 10 13
M  V30 13 1 11 14
M  V30 14 1 12 15
M  V30 15 1 13 16
M  V30 16 1 16 17
M  V30 17 1 17 18
M  V30 18 1 18 19
M  V30 19 1 19 20
M  V30 20 1 20 21
M  V30 21 1 21 22
M  V30 22 1 22 23
M  V30 23 1 23 24
M  V30 24 1 24 25
M  V30 25 1 25 26
M  V30 END BOND
M  V30 END CTAB
M  END
>  <Molecule Name>
N-Hexadecanoyldibutylamine

>  <Activity Label>
0

>  <SMILES>
CCCCCCCCCCCCCCCC(N(CCCC)CCCC)=O

>  <Molecular Formula>
C24H49NO

>  <InChIKey>
LIJJEQWAIAPJAK-UHFFFAOYSA-N

>  <Repellency>
Inactive

>  <Reference DOI>
10.3390/toxics11100837

>  <Target Organism>
Not applied

$$$$
Compound 1174
Actelion Java MolfileCreator 2.0

  0  0  0  0  0  0              0 V3000
M  V30 BEGIN CTAB
M  V30 COUNTS 26 25 0 0 0
M  V30 BEGIN ATOM
M  V30 1 O 0.0 0.0 0.0 0
M  V30 2 C 0.0 -1.5023 0.0 0
M  V30 3 N -1.3012 -2.2476 0.0 0
M  V30 4 C 1.3012 -2.2476 0.0 0
M  V30 5 C -1.3012 -3.7499 0.0 0
M  V30 6 C -2.6024 -1.5023 0.0 0
M  V30 7 C 2.6024 -1.5023 0.0 0
M  V30 8 C 0.0 -4.4952 0.0 0
M  V30 9 C -3.9037 -2.2476 0.0 0
M  V30 10 C 3.9037 -2.2476 0.0 0
M  V30 11 C 0.0 -5.9975 0.0 0
M  V30 12 C -5.2049 -1.5023 0.0 0
M  V30 13 C 5.2049 -1.5023 0.0 0
M  V30 14 C 1.3012 -6.7428 0.0 0
M  V30 15 C -6.5062 -2.2476 0.0 0
M  V30 16 C 6.5062 -2.2476 0.0 0
M  V30 17 C 1.3012 -8.2451 0.0 0
M  V30 18 C -7.8074 -1.5023 0.0 0
M  V30 19 C 7.8074 -1.5023 0.0 0
M  V30 20 C 2.6024 -8.9904 0.0 0
M  V30 21 C -9.1087 -2.2476 0.0 0
M  V30 22 C 9.1087 -2.2476 0.0 0
M  V30 23 C 10.4099 -1.5023 0.0 0
M  V30 24 C 11.7112 -2.2476 0.0 0
M  V30 25 C 13.0124 -1.5023 0.0 0
M  V30 26 C 14.3137 -2.2476 0.0 0
M  V30 END ATOM
M  V30 BEGIN BOND
M  V30 1 2 1 2
M  V30 2 1 2 3
M  V30 3 1 2 4
M  V30 4 1 3 5
M  V30 5 1 3 6
M  V30 6 1 4 7
M  V30 7 1 5 8
M  V30 8 1 6 9
M  V30 9 1 7 10
M  V30 10 1 8 11
M  V30 11 1 9 12
M  V30 12 1 10 13
M  V30 13 1 11 14
M  V30 14 1 12 15
M  V30 15 1 13 16
M  V30 16 1 14 17
M  V30 17 1 15 18
M  V30 18 1 16 19
M  V30 19 1 17 20
M  V30 20 1 18 21
M  V30 21 1 19 22
M  V30 22 1 22 23
M  V30 23 1 23 24
M  V30 24 1 24 25
M  V30 25 1 25 26
M  V30 END BOND
M  V30 END CTAB
M  END
>  <Molecule Name>
N-Dodecanoyldihexylamine

>  <Activity Label>
0

>  <SMILES>
CCCCCCCCCCCC(N(CCCCCC)CCCCCC)=O

>  <Molecular Formula>
C24H49NO

>  <InChIKey>
XHSSRWPBXXGUSL-UHFFFAOYSA-N

>  <Repellency>
Inactive

>  <Reference DOI>
10.3390/toxics11100837

>  <Target Organism>
Not applied

$$$$
Compound 1175
Actelion Java MolfileCreator 2.0

  0  0  0  0  0  0              0 V3000
M  V30 BEGIN CTAB
M  V30 COUNTS 26 27 0 0 0
M  V30 BEGIN ATOM
M  V30 1 O 0.0 0.0 0.0 0
M  V30 2 C 0.0 1.5017 0.0 0
M  V30 3 N -1.3007 2.2466 0.0 0
M  V30 4 C 1.3007 2.2466 0.0 0
M  V30 5 C -1.3007 3.7484 0.0 0
M  V30 6 C -2.6014 1.5017 0.0 0
M  V30 7 C 2.6014 1.5017 0.0 0
M  V30 8 C 0.0 4.4933 0.0 0
M  V30 9 C -2.6014 4.4933 0.0 0
M  V30 10 C -3.9021 2.2585 0.0 0
M  V30 11 C -2.6014 0.0 0.0 0
M  V30 12 C 3.9021 2.2466 0.0 0
M  V30 13 C 0.0 5.9951 0.0 0
M  V30 14 C -2.6014 5.9951 0.0 0
M  V30 15 C -5.2028 1.5135 0.0 0
M  V30 16 C -3.9021 -0.7449 0.0 0
M  V30 17 C 5.2028 1.5017 0.0 0
M  V30 18 C -1.3007 6.74 0.0 0
M  V30 19 C -5.2028 0.0118 0.0 0
M  V30 20 C 6.5035 2.2466 0.0 0
M  V30 21 C 7.8043 1.5017 0.0 0
M  V30 22 C 9.105 2.2466 0.0 0
M  V30 23 C 10.4057 1.5017 0.0 0
M  V30 24 C 11.7064 2.2466 0.0 0
M  V30 25 C 13.0071 1.5017 0.0 0
M  V30 26 C 14.3078 2.2466 0.0 0
M  V30 END ATOM
M  V30 BEGIN BOND
M  V30 1 2 1 2
M  V30 2 1 2 3
M  V30 3 1 2 4
M  V30 4 1 3 5
M  V30 5 1 3 6
M  V30 6 1 4 7
M  V30 7 1 5 8
M  V30 8 1 5 9
M  V30 9 1 6 10
M  V30 10 1 6 11
M  V30 11 1 7 12
M  V30 12 1 8 13
M  V30 13 1 9 14
M  V30 14 1 10 15
M  V30 15 1 11 16
M  V30 16 1 12 17
M  V30 17 1 13 18
M  V30 18 1 15 19
M  V30 19 1 17 20
M  V30 20 1 20 21
M  V30 21 1 21 22
M  V30 22 1 22 23
M  V30 23 1 23 24
M  V30 24 1 24 25
M  V30 25 1 25 26
M  V30 26 1 14 18
M  V30 27 1 16 19
M  V30 END BOND
M  V30 END CTAB
M  END
>  <Molecule Name>
N-Dodecanoyldicyclohexylamine

>  <Activity Label>
0

>  <SMILES>
CCCCCCCCCCCC(N(C1CCCCC1)C1CCCCC1)=O

>  <Molecular Formula>
C24H45NO

>  <InChIKey>
SWOKBAVGDYSEID-UHFFFAOYSA-N

>  <Repellency>
Inactive

>  <Reference DOI>
10.3390/toxics11100837

>  <Target Organism>
Not applied

$$$$
Compound 1176
Actelion Java MolfileCreator 2.0

  0  0  0  0  0  0              0 V3000
M  V30 BEGIN CTAB
M  V30 COUNTS 27 26 0 0 0
M  V30 BEGIN ATOM
M  V30 1 O 0.0 0.0 0.0 0
M  V30 2 C -1.3003 -0.7447 0.0 0
M  V30 3 O -2.6007 0.0118 0.0 0
M  V30 4 C -1.3003 -2.2461 0.0 0
M  V30 5 C -2.6007 1.5131 0.0 0
M  V30 6 C -2.6007 -2.9908 0.0 0
M  V30 7 C 0.0 -2.9908 0.0 0
M  V30 8 C -3.9011 2.2697 0.0 0
M  V30 9 C -3.9011 -2.2461 0.0 0
M  V30 10 C 1.3003 -2.2461 0.0 0
M  V30 11 C -3.9011 3.7711 0.0 0
M  V30 12 O -3.9011 -0.7447 0.0 0
M  V30 13 O -5.2015 -2.9908 0.0 0
M  V30 14 O 1.3003 -0.7447 0.0 0
M  V30 15 O 2.6007 -2.9908 0.0 0
M  V30 16 C -2.6007 4.5159 0.0 0
M  V30 17 C -5.2015 4.5277 0.0 0
M  V30 18 C -6.5019 -2.2461 0.0 0
M  V30 19 C 3.9011 -2.2461 0.0 0
M  V30 20 C -7.8023 -2.9908 0.0 0
M  V30 21 C 5.2015 -2.9908 0.0 0
M  V30 22 C -9.1027 -2.2461 0.0 0
M  V30 23 C 6.5019 -2.2461 0.0 0
M  V30 24 C -9.1027 -0.7447 0.0 0
M  V30 25 C -10.4031 -2.9908 0.0 0
M  V30 26 C 7.8023 -2.9908 0.0 0
M  V30 27 C 6.5019 -0.7447 0.0 0
M  V30 END ATOM
M  V30 BEGIN BOND
M  V30 1 2 1 2
M  V30 2 1 2 3
M  V30 3 1 2 4
M  V30 4 1 3 5
M  V30 5 2 4 6 CFG=2
M  V30 6 1 4 7
M  V30 7 1 5 8
M  V30 8 1 6 9
M  V30 9 1 7 10
M  V30 10 1 8 11
M  V30 11 2 9 12
M  V30 12 1 9 13
M  V30 13 2 10 14
M  V30 14 1 10 15
M  V30 15 1 11 16
M  V30 16 1 11 17
M  V30 17 1 13 18
M  V30 18 1 15 19
M  V30 19 1 18 20
M  V30 20 1 19 21
M  V30 21 1 20 22
M  V30 22 1 21 23
M  V30 23 1 22 24
M  V30 24 1 22 25
M  V30 25 1 23 26
M  V30 26 1 23 27
M  V30 END BOND
M  V30 END CTAB
M  END
>  <Molecule Name>
Aconitic acid, tri-iso-amyl ester

>  <Activity Label>
0

>  <SMILES>
CC(C)CCOC(CC(C(OCCC(C)C)=O)=CC(OCCC(C)C)=O)=O

>  <Molecular Formula>
C21H36O6

>  <InChIKey>
JEYCGAUGTVVIAP-UHFFFAOYSA-N

>  <Repellency>
Inactive

>  <Reference DOI>
10.3390/toxics11100837

>  <Target Organism>
Not applied

$$$$
Compound 1177
Actelion Java MolfileCreator 2.0

  0  0  0  0  0  0              0 V3000
M  V30 BEGIN CTAB
M  V30 COUNTS 27 26 0 0 0
M  V30 BEGIN ATOM
M  V30 1 O 0.0 0.0 0.0 0
M  V30 2 C 0.0 1.497 0.0 0
M  V30 3 O -1.2966 2.2514 0.0 0
M  V30 4 C 1.2966 2.2514 0.0 0
M  V30 5 C -2.5932 1.497 0.0 0
M  V30 6 C 2.5932 1.497 0.0 0
M  V30 7 C -3.8898 2.2514 0.0 0
M  V30 8 C 3.8898 2.2514 0.0 0
M  V30 9 O -5.1865 1.497 0.0 0
M  V30 10 C 5.1865 1.497 0.0 0
M  V30 11 C -6.4831 2.2514 0.0 0
M  V30 12 C 6.4831 2.2514 0.0 0
M  V30 13 C -7.7797 1.497 0.0 0
M  V30 14 C 7.7797 1.497 0.0 0
M  V30 15 C -9.0763 2.2514 0.0 0
M  V30 16 C 9.0763 2.2514 0.0 0
M  V30 17 C -10.373 1.497 0.0 0
M  V30 18 C 10.373 1.497 0.0 0
M  V30 19 C 11.6696 2.2514 0.0 0
M  V30 20 C 12.9662 1.497 0.0 0
M  V30 21 C 14.2628 2.2514 0.0 0
M  V30 22 C 15.5595 1.497 0.0 0
M  V30 23 C 16.8561 2.2514 0.0 0
M  V30 24 C 18.1527 1.497 0.0 0
M  V30 25 C 19.4493 2.2514 0.0 0
M  V30 26 C 20.746 1.497 0.0 0
M  V30 27 C 22.0426 2.2514 0.0 0
M  V30 END ATOM
M  V30 BEGIN BOND
M  V30 1 2 1 2
M  V30 2 1 2 3
M  V30 3 1 2 4
M  V30 4 1 3 5
M  V30 5 1 4 6
M  V30 6 1 5 7
M  V30 7 1 6 8
M  V30 8 1 7 9
M  V30 9 1 8 10
M  V30 10 1 9 11
M  V30 11 1 10 12
M  V30 12 1 11 13
M  V30 13 1 12 14
M  V30 14 1 13 15
M  V30 15 1 14 16
M  V30 16 1 15 17
M  V30 17 1 16 18
M  V30 18 1 18 19
M  V30 19 1 19 20
M  V30 20 1 20 21
M  V30 21 1 21 22
M  V30 22 1 22 23
M  V30 23 1 23 24
M  V30 24 1 24 25
M  V30 25 1 25 26
M  V30 26 1 26 27
M  V30 END BOND
M  V30 END CTAB
M  END
>  <Molecule Name>
Stearic acid, butoxyethyl ester

>  <Activity Label>
0

>  <SMILES>
CCCCCCCCCCCCCCCCCC(OCCOCCCC)=O

>  <Molecular Formula>
C24H48O3

>  <InChIKey>
NHUXFMNHQIITCP-UHFFFAOYSA-N

>  <Repellency>
Inactive

>  <Reference DOI>
10.3390/toxics11100837

>  <Target Organism>
Not applied

$$$$
Compound 1178
Actelion Java MolfileCreator 2.0

  0  0  0  0  0  0              0 V3000
M  V30 BEGIN CTAB
M  V30 COUNTS 27 26 0 0 0
M  V30 BEGIN ATOM
M  V30 1 S 0.0 0.0 0.0 0
M  V30 2 C 0.0 1.5019 0.0 0
M  V30 3 O 1.3008 2.2469 0.0 0
M  V30 4 C -1.3008 2.2469 0.0 0
M  V30 5 C 2.6017 1.5019 0.0 0
M  V30 6 C -2.6017 1.5019 0.0 0
M  V30 7 C -1.3008 3.7488 0.0 0
M  V30 8 C 3.9026 2.2469 0.0 0
M  V30 9 C -3.9026 2.2469 0.0 0
M  V30 10 C 0.0 4.4939 0.0 0
M  V30 11 C 5.2035 1.5019 0.0 0
M  V30 12 C 3.9026 3.7488 0.0 0
M  V30 13 O -3.9026 3.7488 0.0 0
M  V30 14 O -5.2035 1.5019 0.0 0
M  V30 15 C 0.0 5.9958 0.0 0
M  V30 16 C 6.5043 2.2469 0.0 0
M  V30 17 C 2.6017 4.5057 0.0 0
M  V30 18 C -6.5043 2.2469 0.0 0
M  V30 19 C 7.8052 1.5019 0.0 0
M  V30 20 C -7.8052 1.5019 0.0 0
M  V30 21 C 9.1061 2.2469 0.0 0
M  V30 22 C -9.1061 2.2469 0.0 0
M  V30 23 C -7.8052 0.0 0.0 0
M  V30 24 C -10.407 1.5019 0.0 0
M  V30 25 C -6.5043 -0.745 0.0 0
M  V30 26 C -11.7079 2.2469 0.0 0
M  V30 27 C -13.0087 1.5019 0.0 0
M  V30 END ATOM
M  V30 BEGIN BOND
M  V30 1 2 1 2
M  V30 2 1 2 3
M  V30 3 1 2 4
M  V30 4 1 3 5
M  V30 5 1 4 6
M  V30 6 1 4 7
M  V30 7 1 5 8
M  V30 8 1 6 9
M  V30 9 1 7 10
M  V30 10 1 8 11
M  V30 11 1 8 12
M  V30 12 2 9 13
M  V30 13 1 9 14
M  V30 14 1 10 15
M  V30 15 1 11 16
M  V30 16 1 12 17
M  V30 17 1 14 18
M  V30 18 1 16 19
M  V30 19 1 18 20
M  V30 20 1 19 21
M  V30 21 1 20 22
M  V30 22 1 20 23
M  V30 23 1 22 24
M  V30 24 1 23 25
M  V30 25 1 24 26
M  V30 26 1 26 27
M  V30 END BOND
M  V30 END CTAB
M  END
>  <Molecule Name>
Propylthiosuccinic acid, di(2-ethylhexyl) ester

>  <Activity Label>
0

>  <SMILES>
CCCCC(CC)COC(CC(CCC)C(OCC(CC)CCCC)=S)=O

>  <Molecular Formula>
C23H44O3S

>  <InChIKey>
MVIOOVLRMQLARX-UHFFFAOYSA-N

>  <Repellency>
Inactive

>  <Reference DOI>
10.3390/toxics11100837

>  <Target Organism>
Not applied

$$$$
Compound 1179
Actelion Java MolfileCreator 2.0

  0  0  0  0  0  0              0 V3000
M  V30 BEGIN CTAB
M  V30 COUNTS 27 30 0 0 0
M  V30 BEGIN ATOM
M  V30 1 O 0.0 0.0 0.0 0
M  V30 2 C 0.0 -1.4683 0.0 0
M  V30 3 O -1.2631 -2.1946 0.0 0
M  V30 4 C 1.2631 -2.1946 0.0 0
M  V30 5 C -2.5262 -1.4683 0.0 0
M  V30 6 C 2.6051 -1.5946 0.0 0
M  V30 7 C 1.421 -3.6472 0.0 0
M  V30 8 C -3.7893 -2.1946 0.0 0
M  V30 9 C 3.5841 -2.6841 0.0 0
M  V30 10 C 4.6103 -1.8473 0.0 0
M  V30 11 C 0.3315 -4.6261 0.0 0
M  V30 12 C 2.8578 -3.9472 0.0 0
M  V30 13 C -5.0524 -1.4683 0.0 0
M  V30 14 C -3.7893 -3.663 0.0 0
M  V30 15 C 4.7682 -3.2999 0.0 0
M  V30 16 O -1.0578 -4.1682 0.0 0
M  V30 17 O 0.6315 -6.0629 0.0 0
M  V30 18 C -6.3155 -2.1946 0.0 0
M  V30 19 C -5.0524 -4.3893 0.0 0
M  V30 20 C -0.4578 -7.0418 0.0 0
M  V30 21 C -6.3155 -3.663 0.0 0
M  V30 22 C -0.1578 -8.4786 0.0 0
M  V30 23 C -1.2473 -9.4576 0.0 0
M  V30 24 C 1.2315 -8.9365 0.0 0
M  V30 25 C -0.9473 -10.8944 0.0 0
M  V30 26 C 1.5315 -10.3733 0.0 0
M  V30 27 C 0.442 -11.3522 0.0 0
M  V30 END ATOM
M  V30 BEGIN BOND
M  V30 1 2 1 2
M  V30 2 1 2 3
M  V30 3 1 2 4
M  V30 4 1 3 5
M  V30 5 2 4 6
M  V30 6 1 4 7
M  V30 7 1 5 8
M  V30 8 1 6 9
M  V30 9 1 6 10
M  V30 10 1 7 11
M  V30 11 1 7 12
M  V30 12 2 8 13
M  V30 13 1 8 14
M  V30 14 1 10 15
M  V30 15 2 11 16
M  V30 16 1 11 17
M  V30 17 1 13 18
M  V30 18 2 14 19
M  V30 19 1 17 20
M  V30 20 2 18 21
M  V30 21 1 20 22
M  V30 22 2 22 23
M  V30 23 1 22 24
M  V30 24 1 23 25
M  V30 25 2 24 26
M  V30 26 2 25 27
M  V30 27 1 9 12
M  V30 28 1 12 15
M  V30 29 1 19 21
M  V30 30 1 26 27
M  V30 END BOND
M  V30 END CTAB
M  END
>  <Molecule Name>
Bicyclo-(2,2,1)heptene-2,3-dicarboxylic acid, dibenzyl ester

>  <Activity Label>
0

>  <SMILES>
O=C(C1C(C(OCc2ccccc2)=O)=C2CC1CC2)OCc1ccccc1

>  <Molecular Formula>
C23H22O4

>  <InChIKey>
NKNZSMZWAWUMEB-UHFFFAOYSA-N

>  <Repellency>
Inactive

>  <Reference DOI>
10.3390/toxics11100837

>  <Target Organism>
Not applied

$$$$
Compound 1180
Actelion Java MolfileCreator 2.0

  0  0  0  0  0  0              0 V3000
M  V30 BEGIN CTAB
M  V30 COUNTS 27 29 0 0 0
M  V30 BEGIN ATOM
M  V30 1 O 0.0 0.0 0.0 0
M  V30 2 C 1.2769 0.7685 0.0 0
M  V30 3 O 2.5775 0.0236 0.0 0
M  V30 4 C 1.2769 2.2701 0.0 0
M  V30 5 C 3.8782 0.7803 0.0 0
M  V30 6 C -0.1773 1.8799 0.0 0
M  V30 7 C 0.532 3.5707 0.0 0
M  V30 8 C 2.0218 3.5707 0.0 0
M  V30 9 C 5.1788 0.0354 0.0 0
M  V30 10 O -1.2415 2.9441 0.0 0
M  V30 11 O -0.5793 0.4374 0.0 0
M  V30 12 C -0.7685 4.3156 0.0 0
M  V30 13 C 3.3224 4.3275 0.0 0
M  V30 14 C -2.01 0.0354 0.0 0
M  V30 15 C -0.7685 5.8173 0.0 0
M  V30 16 C -2.0691 3.5589 0.0 0
M  V30 17 O 3.3224 5.8291 0.0 0
M  V30 18 C 4.6231 3.5826 0.0 0
M  V30 19 C -3.0741 1.0996 0.0 0
M  V30 20 C -2.0691 6.5622 0.0 0
M  V30 21 C -3.3697 4.3156 0.0 0
M  V30 22 C 4.6231 2.0809 0.0 0
M  V30 23 C 5.9237 4.3393 0.0 0
M  V30 24 C -3.3697 5.8054 0.0 0
M  V30 25 C 5.9237 1.336 0.0 0
M  V30 26 C 7.2243 3.5944 0.0 0
M  V30 27 C 7.2243 2.0928 0.0 0
M  V30 END ATOM
M  V30 BEGIN BOND
M  V30 1 2 1 2
M  V30 2 1 2 3
M  V30 3 1 2 4
M  V30 4 1 3 5
M  V30 5 1 4 6
M  V30 6 1 4 7
M  V30 7 1 4 8
M  V30 8 1 5 9
M  V30 9 2 6 10
M  V30 10 1 6 11
M  V30 11 1 7 12
M  V30 12 1 8 13
M  V30 13 1 11 14
M  V30 14 2 12 15
M  V30 15 1 12 16
M  V30 16 2 13 17
M  V30 17 1 13 18
M  V30 18 1 14 19
M  V30 19 1 15 20
M  V30 20 2 16 21
M  V30 21 2 18 22
M  V30 22 1 18 23
M  V30 23 2 20 24
M  V30 24 1 22 25
M  V30 25 2 23 26
M  V30 26 2 25 27
M  V30 27 1 7 8
M  V30 28 1 21 24
M  V30 29 1 26 27
M  V30 END BOND
M  V30 END CTAB
M  END
>  <Molecule Name>
2-Phenyl-3-benzoylcyclopropane-1,1-dicarboxylic acid, diethyl ester

>  <Activity Label>
0

>  <SMILES>
CCOC(C(C1C(c2ccccc2)=O)(C1c1ccccc1)C(OCC)=O)=O

>  <Molecular Formula>
C22H22O5

>  <InChIKey>
PVRZLYTVZVHHPI-UHFFFAOYSA-N

>  <Repellency>
Inactive

>  <Reference DOI>
10.3390/toxics11100837

>  <Target Organism>
Not applied

$$$$
Compound 1181
Actelion Java MolfileCreator 2.0

  0  0  0  0  0  0              0 V3000
M  V30 BEGIN CTAB
M  V30 COUNTS 27 27 0 0 0
M  V30 BEGIN ATOM
M  V30 1 O 0.0 0.0 0.0 0
M  V30 2 C 0.0 -1.502 0.0 0
M  V30 3 O -1.3009 -2.2471 0.0 0
M  V30 4 C 1.3009 -2.2471 0.0 0
M  V30 5 C -2.6019 -1.502 0.0 0
M  V30 6 C 2.6019 -1.502 0.0 0
M  V30 7 C -3.9029 -2.2471 0.0 0
M  V30 8 C 3.9029 -2.2471 0.0 0
M  V30 9 C -5.2039 -1.502 0.0 0
M  V30 10 C 3.9029 -3.7492 0.0 0
M  V30 11 C 5.2039 -1.502 0.0 0
M  V30 12 C -6.5049 -2.2471 0.0 0
M  V30 13 C 5.2039 -4.5061 0.0 0
M  V30 14 C 6.5049 -2.2589 0.0 0
M  V30 15 C -7.8059 -1.502 0.0 0
M  V30 16 C 6.5049 -3.761 0.0 0
M  V30 17 C -9.1069 -2.2471 0.0 0
M  V30 18 C -10.4078 -1.502 0.0 0
M  V30 19 C -11.7088 -2.2471 0.0 0
M  V30 20 C -13.0098 -1.502 0.0 0
M  V30 21 C -14.3108 -2.2471 0.0 0
M  V30 22 C -15.6118 -1.502 0.0 0
M  V30 23 C -16.9128 -2.2471 0.0 0
M  V30 24 C -18.2138 -1.502 0.0 0
M  V30 25 C -19.5147 -2.2471 0.0 0
M  V30 26 C -20.8157 -1.502 0.0 0
M  V30 27 C -22.1167 -2.2471 0.0 0
M  V30 END ATOM
M  V30 BEGIN BOND
M  V30 1 2 1 2
M  V30 2 1 2 3
M  V30 3 1 2 4
M  V30 4 1 3 5
M  V30 5 2 4 6 CFG=2
M  V30 6 1 5 7
M  V30 7 1 6 8
M  V30 8 1 7 9
M  V30 9 2 8 10
M  V30 10 1 8 11
M  V30 11 1 9 12
M  V30 12 1 10 13
M  V30 13 2 11 14
M  V30 14 1 12 15
M  V30 15 2 13 16
M  V30 16 1 15 17
M  V30 17 1 17 18
M  V30 18 1 18 19
M  V30 19 1 19 20
M  V30 20 1 20 21
M  V30 21 1 21 22
M  V30 22 1 22 23
M  V30 23 1 23 24
M  V30 24 1 24 25
M  V30 25 1 25 26
M  V30 26 1 26 27
M  V30 27 1 14 16
M  V30 END BOND
M  V30 END CTAB
M  END
>  <Molecule Name>
Cinnamic acid, cetyl ester

>  <Activity Label>
0

>  <SMILES>
CCCCCCCCCCCCCCCCOC(C=Cc1ccccc1)=O

>  <Molecular Formula>
C25H40O2

>  <InChIKey>
DGRQAULORKBRKT-UHFFFAOYSA-N

>  <Repellency>
Inactive

>  <Reference DOI>
10.3390/toxics11100837

>  <Target Organism>
Not applied

$$$$
Compound 1182
Actelion Java MolfileCreator 2.0

  0  0  0  0  0  0              0 V3000
M  V30 BEGIN CTAB
M  V30 COUNTS 27 27 0 0 0
M  V30 BEGIN ATOM
M  V30 1 O 0.0 0.0 0.0 0
M  V30 2 C 0.0 -1.502 0.0 0
M  V30 3 O -1.3009 -2.2471 0.0 0
M  V30 4 C 1.3009 -2.2471 0.0 0
M  V30 5 C -2.6019 -1.502 0.0 0
M  V30 6 C 2.6019 -1.502 0.0 0
M  V30 7 C -3.9029 -2.2471 0.0 0
M  V30 8 C 3.9029 -2.2471 0.0 0
M  V30 9 C -5.2039 -1.4902 0.0 0
M  V30 10 C -3.9029 -3.7492 0.0 0
M  V30 11 C 5.2039 -1.502 0.0 0
M  V30 12 C -6.5049 -2.2353 0.0 0
M  V30 13 C -5.2039 -4.4943 0.0 0
M  V30 14 C 6.5049 -2.2471 0.0 0
M  V30 15 C -6.5049 -3.7373 0.0 0
M  V30 16 C 7.8059 -1.502 0.0 0
M  V30 17 C 9.1069 -2.2471 0.0 0
M  V30 18 C 10.4078 -1.502 0.0 0
M  V30 19 C 11.7088 -2.2471 0.0 0
M  V30 20 C 13.0098 -1.502 0.0 0
M  V30 21 C 14.3108 -2.2471 0.0 0
M  V30 22 C 15.6118 -1.502 0.0 0
M  V30 23 C 16.9128 -2.2471 0.0 0
M  V30 24 C 18.2138 -1.502 0.0 0
M  V30 25 C 19.5147 -2.2471 0.0 0
M  V30 26 C 20.8157 -1.502 0.0 0
M  V30 27 C 22.1167 -2.2471 0.0 0
M  V30 END ATOM
M  V30 BEGIN BOND
M  V30 1 2 1 2
M  V30 2 1 2 3
M  V30 3 1 2 4
M  V30 4 1 3 5
M  V30 5 1 4 6
M  V30 6 1 5 7
M  V30 7 1 6 8
M  V30 8 2 7 9
M  V30 9 1 7 10
M  V30 10 1 8 11
M  V30 11 1 9 12
M  V30 12 2 10 13
M  V30 13 1 11 14
M  V30 14 2 12 15
M  V30 15 1 14 16
M  V30 16 1 16 17
M  V30 17 1 17 18
M  V30 18 1 18 19
M  V30 19 1 19 20
M  V30 20 1 20 21
M  V30 21 1 21 22
M  V30 22 1 22 23
M  V30 23 1 23 24
M  V30 24 1 24 25
M  V30 25 1 25 26
M  V30 26 1 26 27
M  V30 27 1 13 15
M  V30 END BOND
M  V30 END CTAB
M  END
>  <Molecule Name>
Stearic acid, benzyl ester

>  <Activity Label>
0

>  <SMILES>
CCCCCCCCCCCCCCCCCC(OCc1ccccc1)=O

>  <Molecular Formula>
C25H42O2

>  <InChIKey>
BPSLVNCMKDXZPC-UHFFFAOYSA-N

>  <Repellency>
Inactive

>  <Reference DOI>
10.3390/toxics11100837

>  <Target Organism>
Not applied

$$$$
Compound 1183
Actelion Java MolfileCreator 2.0

  0  0  0  0  0  0              0 V3000
M  V30 BEGIN CTAB
M  V30 COUNTS 27 27 0 0 0
M  V30 BEGIN ATOM
M  V30 1 O 0.0 0.0 0.0 0
M  V30 2 C -1.3006 0.7449 0.0 0
M  V30 3 C -2.6012 0.0 0.0 0
M  V30 4 C -1.3006 2.2465 0.0 0
M  V30 5 C -3.9019 0.7449 0.0 0
M  V30 6 C -2.6012 -1.5016 0.0 0
M  V30 7 C -2.6012 2.9914 0.0 0
M  V30 8 C 0.0 2.9914 0.0 0
M  V30 9 C -3.9019 2.2465 0.0 0
M  V30 10 C -1.3006 -2.2583 0.0 0
M  V30 11 C -3.3461 -2.8022 0.0 0
M  V30 12 C -4.1029 -1.5016 0.0 0
M  V30 13 N 1.3006 2.2465 0.0 0
M  V30 14 C -5.2025 2.9914 0.0 0
M  V30 15 C -1.3006 -3.76 0.0 0
M  V30 16 C 2.6012 2.9914 0.0 0
M  V30 17 C 1.3006 0.7449 0.0 0
M  V30 18 C -6.5031 2.2465 0.0 0
M  V30 19 C -2.8022 -3.76 0.0 0
M  V30 20 C -1.3006 -5.2616 0.0 0
M  V30 21 C 0.201 -3.76 0.0 0
M  V30 22 C -7.8038 2.9914 0.0 0
M  V30 23 C -9.1044 2.2465 0.0 0
M  V30 24 C -10.405 2.9914 0.0 0
M  V30 25 C -11.7057 2.2465 0.0 0
M  V30 26 C -13.0063 2.9914 0.0 0
M  V30 27 C -14.307 2.2465 0.0 0
M  V30 END ATOM
M  V30 BEGIN BOND
M  V30 1 1 1 2
M  V30 2 2 2 3
M  V30 3 1 2 4
M  V30 4 1 3 5
M  V30 5 1 3 6
M  V30 6 2 4 7
M  V30 7 1 4 8
M  V30 8 2 5 9
M  V30 9 1 6 10
M  V30 10 1 6 11
M  V30 11 1 6 12
M  V30 12 1 8 13
M  V30 13 1 9 14
M  V30 14 1 10 15
M  V30 15 1 13 16
M  V30 16 1 13 17
M  V30 17 1 14 18
M  V30 18 1 15 19
M  V30 19 1 15 20
M  V30 20 1 15 21
M  V30 21 1 18 22
M  V30 22 1 22 23
M  V30 23 1 23 24
M  V30 24 1 24 25
M  V30 25 1 25 26
M  V30 26 1 26 27
M  V30 27 1 7 9
M  V30 END BOND
M  V30 END CTAB
M  END
>  <Molecule Name>
alpha-Dimethylamino-4-octyl-6-(1,1,3,3-tetramethylbutyl)-o-cresol

>  <Activity Label>
0

>  <SMILES>
CCCCCCCCc(cc1CN(C)C)cc(C(C)(C)CC(C)(C)C)c1O

>  <Molecular Formula>
C25H45NO

>  <InChIKey>
XVZLXWLOKDUGKB-UHFFFAOYSA-N

>  <Repellency>
Inactive

>  <Reference DOI>
10.3390/toxics11100837

>  <Target Organism>
Not applied

$$$$
Compound 1184
Actelion Java MolfileCreator 2.0

  0  0  0  0  0  0              0 V3000
M  V30 BEGIN CTAB
M  V30 COUNTS 27 27 0 0 0
M  V30 BEGIN ATOM
M  V30 1 O 0.0 0.0 0.0 0
M  V30 2 C -1.2994 0.756 0.0 0
M  V30 3 C -2.5989 0.0118 0.0 0
M  V30 4 C -1.2994 2.2564 0.0 0
M  V30 5 C -3.8984 0.756 0.0 0
M  V30 6 C -2.5989 -1.4885 0.0 0
M  V30 7 C -2.5989 3.0124 0.0 0
M  V30 8 C 0.0 3.0006 0.0 0
M  V30 9 C -3.8984 2.2564 0.0 0
M  V30 10 C -1.2994 -2.2445 0.0 0
M  V30 11 C -3.3432 -2.788 0.0 0
M  V30 12 C -4.0993 -1.4885 0.0 0
M  V30 13 N 1.2994 2.2564 0.0 0
M  V30 14 C -5.1979 3.0124 0.0 0
M  V30 15 C -1.2994 -3.7449 0.0 0
M  V30 16 C 2.5989 3.0006 0.0 0
M  V30 17 C 1.2994 0.756 0.0 0
M  V30 18 C -6.4974 2.2682 0.0 0
M  V30 19 C -5.9422 4.3119 0.0 0
M  V30 20 C -4.4537 4.3119 0.0 0
M  V30 21 C -2.7998 -3.7449 0.0 0
M  V30 22 C -1.2994 -5.2452 0.0 0
M  V30 23 C 0.2008 -3.7449 0.0 0
M  V30 24 C -7.7969 3.0242 0.0 0
M  V30 25 C -7.0527 4.3237 0.0 0
M  V30 26 C -9.0964 3.7803 0.0 0
M  V30 27 C -8.5412 1.7247 0.0 0
M  V30 END ATOM
M  V30 BEGIN BOND
M  V30 1 1 1 2
M  V30 2 2 2 3
M  V30 3 1 2 4
M  V30 4 1 3 5
M  V30 5 1 3 6
M  V30 6 2 4 7
M  V30 7 1 4 8
M  V30 8 2 5 9
M  V30 9 1 6 10
M  V30 10 1 6 11
M  V30 11 1 6 12
M  V30 12 1 8 13
M  V30 13 1 9 14
M  V30 14 1 10 15
M  V30 15 1 13 16
M  V30 16 1 13 17
M  V30 17 1 14 18
M  V30 18 1 14 19
M  V30 19 1 14 20
M  V30 20 1 15 21
M  V30 21 1 15 22
M  V30 22 1 15 23
M  V30 23 1 18 24
M  V30 24 1 24 25
M  V30 25 1 24 26
M  V30 26 1 24 27
M  V30 27 1 7 9
M  V30 END BOND
M  V30 END CTAB
M  END
>  <Molecule Name>
alpha-Dimethylamino-4,6-bis(1,1,3,3-tetramethylbutyl)-o-cresol

>  <Activity Label>
0

>  <SMILES>
CC(C)(C)CC(C)(C)c(cc1CN(C)C)cc(C(C)(C)CC(C)(C)C)c1O

>  <Molecular Formula>
C25H45NO

>  <InChIKey>
AGDACEGMHWMSDR-UHFFFAOYSA-N

>  <Repellency>
Inactive

>  <Reference DOI>
10.3390/toxics11100837

>  <Target Organism>
Not applied

$$$$
Compound 1185
Actelion Java MolfileCreator 2.0

  0  0  0  0  0  0              0 V3000
M  V30 BEGIN CTAB
M  V30 COUNTS 28 28 0 0 0
M  V30 BEGIN ATOM
M  V30 1 O 0.0 0.0 0.0 0
M  V30 2 C -1.3004 0.7565 0.0 0
M  V30 3 O -2.6008 0.0118 0.0 0
M  V30 4 C -1.3004 2.2579 0.0 0
M  V30 5 C -2.6008 -1.4895 0.0 0
M  V30 6 C -2.6008 3.0027 0.0 0
M  V30 7 C 0.0 3.0027 0.0 0
M  V30 8 C -3.9012 -2.2343 0.0 0
M  V30 9 C -3.9012 2.2579 0.0 0
M  V30 10 C -2.6008 4.5041 0.0 0
M  V30 11 C 0.0 4.5041 0.0 0
M  V30 12 O -5.2016 -1.4895 0.0 0
M  V30 13 O -3.9012 -3.7357 0.0 0
M  V30 14 O -3.9012 0.7565 0.0 0
M  V30 15 O -5.2016 3.0027 0.0 0
M  V30 16 C -1.3004 5.2489 0.0 0
M  V30 17 C -5.2016 0.0118 0.0 0
M  V30 18 C -5.2016 -4.4804 0.0 0
M  V30 19 C -6.502 2.2579 0.0 0
M  V30 20 C -6.502 0.7684 0.0 0
M  V30 21 C -5.2016 -5.9818 0.0 0
M  V30 22 C -7.8024 3.0027 0.0 0
M  V30 23 O -7.8024 4.5041 0.0 0
M  V30 24 O -9.1028 2.2579 0.0 0
M  V30 25 C -6.502 5.2489 0.0 0
M  V30 26 C -10.4032 3.0027 0.0 0
M  V30 27 C -6.502 6.7502 0.0 0
M  V30 28 C -11.7036 2.2579 0.0 0
M  V30 END ATOM
M  V30 BEGIN BOND
M  V30 1 2 1 2
M  V30 2 1 2 3
M  V30 3 1 2 4
M  V30 4 1 3 5
M  V30 5 2 4 6
M  V30 6 1 4 7
M  V30 7 1 5 8
M  V30 8 1 6 9
M  V30 9 1 6 10
M  V30 10 2 7 11
M  V30 11 1 8 12
M  V30 12 1 8 13
M  V30 13 2 9 14
M  V30 14 1 9 15
M  V30 15 2 10 16
M  V30 16 1 12 17
M  V30 17 1 13 18
M  V30 18 1 15 19
M  V30 19 1 17 20
M  V30 20 1 18 21
M  V30 21 1 19 22
M  V30 22 1 22 23
M  V30 23 1 22 24
M  V30 24 1 23 25
M  V30 25 1 24 26
M  V30 26 1 25 27
M  V30 27 1 26 28
M  V30 28 1 11 16
M  V30 END BOND
M  V30 END CTAB
M  END
>  <Molecule Name>
Phthalic acid, di(beta'-ethoxy-beta-ethoxyethyl) ester

>  <Activity Label>
0

>  <SMILES>
CCOC(COC(c(cccc1)c1C(OCC(OCC)OCC)=O)=O)OCC

>  <Molecular Formula>
C20H30O8

>  <InChIKey>
AMTXMVKORFMCKY-UHFFFAOYSA-N

>  <Repellency>
Inactive

>  <Reference DOI>
10.3390/toxics11100837

>  <Target Organism>
Not applied

$$$$
Compound 1186
Actelion Java MolfileCreator 2.0

  0  0  0  0  0  0              0 V3000
M  V30 BEGIN CTAB
M  V30 COUNTS 28 28 0 0 0
M  V30 BEGIN ATOM
M  V30 1 O 0.0 0.0 0.0 0
M  V30 2 C 0.0 -1.5016 0.0 0
M  V30 3 O -1.3006 -2.2465 0.0 0
M  V30 4 C 1.3006 -2.2465 0.0 0
M  V30 5 C -2.6012 -1.5016 0.0 0
M  V30 6 C 2.6012 -1.5016 0.0 0
M  V30 7 C -3.9019 -2.2465 0.0 0
M  V30 8 C 3.9019 -2.2465 0.0 0
M  V30 9 O -5.2025 -1.5016 0.0 0
M  V30 10 C 5.2025 -1.5016 0.0 0
M  V30 11 C -6.5032 -2.2465 0.0 0
M  V30 12 C 6.5032 -2.2465 0.0 0
M  V30 13 C -7.8038 -1.4898 0.0 0
M  V30 14 C -6.5032 -3.7482 0.0 0
M  V30 15 C 7.8038 -1.5016 0.0 0
M  V30 16 C -9.1045 -2.2347 0.0 0
M  V30 17 C -7.8038 -4.4931 0.0 0
M  V30 18 C 9.1045 -2.2465 0.0 0
M  V30 19 C -9.1045 -3.7363 0.0 0
M  V30 20 C 10.4051 -1.5016 0.0 0
M  V30 21 C -10.4051 -4.4813 0.0 0
M  V30 22 C 11.7057 -2.2465 0.0 0
M  V30 23 C -11.7057 -3.7245 0.0 0
M  V30 24 C -11.1618 -5.7819 0.0 0
M  V30 25 C -9.6602 -5.7819 0.0 0
M  V30 26 C 13.0064 -1.5016 0.0 0
M  V30 27 C -13.0064 -4.4694 0.0 0
M  V30 28 C 14.307 -2.2465 0.0 0
M  V30 END ATOM
M  V30 BEGIN BOND
M  V30 1 2 1 2
M  V30 2 1 2 3
M  V30 3 1 2 4
M  V30 4 1 3 5
M  V30 5 1 4 6
M  V30 6 1 5 7
M  V30 7 1 6 8
M  V30 8 1 7 9
M  V30 9 1 8 10
M  V30 10 1 9 11
M  V30 11 1 10 12
M  V30 12 2 11 13
M  V30 13 1 11 14
M  V30 14 1 12 15
M  V30 15 1 13 16
M  V30 16 2 14 17
M  V30 17 1 15 18
M  V30 18 2 16 19
M  V30 19 1 18 20
M  V30 20 1 19 21
M  V30 21 1 20 22
M  V30 22 1 21 23
M  V30 23 1 21 24
M  V30 24 1 21 25
M  V30 25 1 22 26
M  V30 26 1 23 27
M  V30 27 1 26 28
M  V30 28 1 17 19
M  V30 END BOND
M  V30 END CTAB
M  END
>  <Molecule Name>
Lauric acid, p-tert-amylphenoxyethyl ester

>  <Activity Label>
0

>  <SMILES>
CCCCCCCCCCCC(OCCOc1ccc(C(C)(C)CC)cc1)=O

>  <Molecular Formula>
C25H42O3

>  <InChIKey>
OVRWBUJGIGBNKC-UHFFFAOYSA-N

>  <Repellency>
Inactive

>  <Reference DOI>
10.3390/toxics11100837

>  <Target Organism>
Not applied

$$$$
Compound 1187
Actelion Java MolfileCreator 2.0

  0  0  0  0  0  0              0 V3000
M  V30 BEGIN CTAB
M  V30 COUNTS 28 30 0 0 0
M  V30 BEGIN ATOM
M  V30 1 O 0.0 0.0 0.0 0
M  V30 2 C 0.0 1.5 0.0 0
M  V30 3 C -1.2992 -0.7441 0.0 0
M  V30 4 C -1.2992 2.2442 0.0 0
M  V30 5 C 1.2992 2.256 0.0 0
M  V30 6 O -2.5985 0.0 0.0 0
M  V30 7 C -1.2992 -2.2442 0.0 0
M  V30 8 C -1.2992 3.7443 0.0 0
M  V30 9 C -2.5985 1.4882 0.0 0
M  V30 10 C 1.2992 3.7561 0.0 0
M  V30 11 C 2.5985 1.5119 0.0 0
M  V30 12 C -3.8978 -0.7441 0.0 0
M  V30 13 C 0.0 -2.9883 0.0 0
M  V30 14 C 0.0 4.5002 0.0 0
M  V30 15 C -3.8978 -2.2442 0.0 0
M  V30 16 C -5.1971 0.0118 0.0 0
M  V30 17 C 0.0 -4.4884 0.0 0
M  V30 18 C 1.2992 -2.2442 0.0 0
M  V30 19 C 0.0 6.0003 0.0 0
M  V30 20 C -5.1971 -2.9883 0.0 0
M  V30 21 C -2.5985 -3.0001 0.0 0
M  V30 22 C -6.4964 -0.7323 0.0 0
M  V30 23 C -5.1971 1.5119 0.0 0
M  V30 24 C 1.2992 -5.2444 0.0 0
M  V30 25 C 2.5985 -2.9883 0.0 0
M  V30 26 C -6.4964 -2.2442 0.0 0
M  V30 27 C 2.5985 -4.4884 0.0 0
M  V30 28 C -7.7957 -2.9883 0.0 0
M  V30 END ATOM
M  V30 BEGIN BOND
M  V30 1 1 1 2
M  V30 2 1 1 3
M  V30 3 2 2 4
M  V30 4 1 2 5
M  V30 5 1 3 6
M  V30 6 1 3 7
M  V30 7 1 4 8
M  V30 8 1 4 9
M  V30 9 2 5 10
M  V30 10 1 5 11
M  V30 11 1 6 12
M  V30 12 1 7 13
M  V30 13 2 8 14
M  V30 14 2 12 15
M  V30 15 1 12 16
M  V30 16 2 13 17
M  V30 17 1 13 18
M  V30 18 1 14 19
M  V30 19 1 15 20
M  V30 20 1 15 21
M  V30 21 2 16 22
M  V30 22 1 16 23
M  V30 23 1 17 24
M  V30 24 2 18 25
M  V30 25 2 20 26
M  V30 26 2 24 27
M  V30 27 1 26 28
M  V30 28 1 10 14
M  V30 29 1 22 26
M  V30 30 1 25 27
M  V30 END BOND
M  V30 END CTAB
M  END
>  <Molecule Name>
Phenylacetaldehyde dimesityl acetal

>  <Activity Label>
0

>  <SMILES>
Cc(cc1C)cc(C)c1OC(Cc1ccccc1)Oc1c(C)cc(C)cc1C

>  <Molecular Formula>
C26H30O2

>  <InChIKey>
MSECAXPMNADTTA-UHFFFAOYSA-N

>  <Repellency>
Inactive

>  <Reference DOI>
10.3390/toxics11100837

>  <Target Organism>
Not applied

$$$$
Compound 1188
Actelion Java MolfileCreator 2.0

  0  0  0  0  0  0              0 V3000
M  V30 BEGIN CTAB
M  V30 COUNTS 28 29 0 0 0
M  V30 BEGIN ATOM
M  V30 1 O 0.0 0.0 0.0 0
M  V30 2 C 0.0 -1.5009 0.0 0
M  V30 3 O -1.3 -2.2455 0.0 0
M  V30 4 C 1.3 -2.2455 0.0 0
M  V30 5 C -2.6001 -1.5009 0.0 0
M  V30 6 C 2.6001 -1.5009 0.0 0
M  V30 7 C -3.9002 -2.2455 0.0 0
M  V30 8 C 3.9002 -2.2455 0.0 0
M  V30 9 C -5.2002 -1.4891 0.0 0
M  V30 10 C -3.9002 -3.7465 0.0 0
M  V30 11 C 5.2002 -1.5009 0.0 0
M  V30 12 C -6.5003 -2.2337 0.0 0
M  V30 13 C -5.2002 -4.4911 0.0 0
M  V30 14 C 6.5003 -2.2455 0.0 0
M  V30 15 C -6.5003 -3.7347 0.0 0
M  V30 16 C 7.8004 -1.5009 0.0 0
M  V30 17 C 9.1004 -2.2455 0.0 0
M  V30 18 C 10.4005 -1.5009 0.0 0
M  V30 19 C 11.7006 -2.2455 0.0 0
M  V30 20 O 11.7006 -3.7465 0.0 0
M  V30 21 O 13.0007 -1.5009 0.0 0
M  V30 22 C 14.3007 -2.2455 0.0 0
M  V30 23 C 15.6008 -1.5009 0.0 0
M  V30 24 C 16.9009 -2.2573 0.0 0
M  V30 25 C 15.6008 0.0 0.0 0
M  V30 26 C 18.2009 -1.5128 0.0 0
M  V30 27 C 16.9009 0.7564 0.0 0
M  V30 28 C 18.2009 -0.0118 0.0 0
M  V30 END ATOM
M  V30 BEGIN BOND
M  V30 1 2 1 2
M  V30 2 1 2 3
M  V30 3 1 2 4
M  V30 4 1 3 5
M  V30 5 1 4 6
M  V30 6 1 5 7
M  V30 7 1 6 8
M  V30 8 2 7 9
M  V30 9 1 7 10
M  V30 10 1 8 11
M  V30 11 1 9 12
M  V30 12 2 10 13
M  V30 13 1 11 14
M  V30 14 2 12 15
M  V30 15 1 14 16
M  V30 16 1 16 17
M  V30 17 1 17 18
M  V30 18 1 18 19
M  V30 19 2 19 20
M  V30 20 1 19 21
M  V30 21 1 21 22
M  V30 22 1 22 23
M  V30 23 2 23 24
M  V30 24 1 23 25
M  V30 25 1 24 26
M  V30 26 2 25 27
M  V30 27 2 26 28
M  V30 28 1 13 15
M  V30 29 1 27 28
M  V30 END BOND
M  V30 END CTAB
M  END
>  <Molecule Name>
Sebacic acid, dibenzyl ester

>  <Activity Label>
0

>  <SMILES>
O=C(CCCCCCCCC(OCc1ccccc1)=O)OCc1ccccc1

>  <Molecular Formula>
C24H30O4

>  <InChIKey>
DVLXEVMGHXWBOZ-UHFFFAOYSA-N

>  <Repellency>
Inactive

>  <Reference DOI>
10.3390/toxics11100837

>  <Target Organism>
Not applied

$$$$
Compound 1189
Actelion Java MolfileCreator 2.0

  0  0  0  0  0  0              0 V3000
M  V30 BEGIN CTAB
M  V30 COUNTS 28 29 0 0 0
M  V30 BEGIN ATOM
M  V30 1 O 0.0 0.0 0.0 0
M  V30 2 C 1.2995 0.7442 0.0 0
M  V30 3 O 2.5991 0.0 0.0 0
M  V30 4 C 1.2995 2.2446 0.0 0
M  V30 5 C 2.5991 -1.5003 0.0 0
M  V30 6 C 0.0 2.9889 0.0 0
M  V30 7 C 2.5991 2.9889 0.0 0
M  V30 8 C 3.8986 -2.2564 0.0 0
M  V30 9 O 0.0 4.4893 0.0 0
M  V30 10 O -1.2995 2.2446 0.0 0
M  V30 11 C 3.8986 2.2446 0.0 0
M  V30 12 C -2.5991 2.9889 0.0 0
M  V30 13 C 5.1982 2.9889 0.0 0
M  V30 14 C -3.8986 2.2446 0.0 0
M  V30 15 O 6.4977 2.2446 0.0 0
M  V30 16 O 5.1982 4.4893 0.0 0
M  V30 17 C 7.7973 2.9889 0.0 0
M  V30 18 C 3.8986 5.2454 0.0 0
M  V30 19 C 9.0968 2.2328 0.0 0
M  V30 20 C 7.7973 4.4893 0.0 0
M  V30 21 C 3.8986 6.7458 0.0 0
M  V30 22 C 2.5991 4.5011 0.0 0
M  V30 23 C 10.3964 2.9771 0.0 0
M  V30 24 C 9.0968 5.2454 0.0 0
M  V30 25 C 2.5991 7.5019 0.0 0
M  V30 26 C 1.2995 5.2572 0.0 0
M  V30 27 C 10.3964 4.4775 0.0 0
M  V30 28 C 1.2995 6.7576 0.0 0
M  V30 END ATOM
M  V30 BEGIN BOND
M  V30 1 2 1 2
M  V30 2 1 2 3
M  V30 3 1 2 4
M  V30 4 1 3 5
M  V30 5 1 4 6
M  V30 6 1 4 7
M  V30 7 1 5 8
M  V30 8 2 6 9
M  V30 9 1 6 10
M  V30 10 1 7 11
M  V30 11 1 10 12
M  V30 12 1 11 13
M  V30 13 1 12 14
M  V30 14 1 13 15
M  V30 15 1 13 16
M  V30 16 1 15 17
M  V30 17 1 16 18
M  V30 18 2 17 19
M  V30 19 1 17 20
M  V30 20 2 18 21
M  V30 21 1 18 22
M  V30 22 1 19 23
M  V30 23 2 20 24
M  V30 24 1 21 25
M  V30 25 2 22 26
M  V30 26 2 23 27
M  V30 27 2 25 28
M  V30 28 1 24 27
M  V30 29 1 26 28
M  V30 END BOND
M  V30 END CTAB
M  END
>  <Molecule Name>
Diphenoxypropylmalonic acid, diethyl ester

>  <Activity Label>
0

>  <SMILES>
CCOC(C(CCC(Oc1ccccc1)Oc1ccccc1)C(OCC)=O)=O

>  <Molecular Formula>
C22H26O6

>  <InChIKey>
YEMNSMBYYURIOD-UHFFFAOYSA-N

>  <Repellency>
Inactive

>  <Reference DOI>
10.3390/toxics11100837

>  <Target Organism>
Not applied

$$$$
Compound 1190
Actelion Java MolfileCreator 2.0

  0  0  0  0  0  0              0 V3000
M  V30 BEGIN CTAB
M  V30 COUNTS 28 27 0 0 0
M  V30 BEGIN ATOM
M  V30 1 O 0.0 0.0 0.0 0
M  V30 2 C 1.2995 0.758 0.0 0
M  V30 3 O 2.7751 0.1759 0.0 0
M  V30 4 C 1.2995 2.2607 0.0 0
M  V30 5 C 3.8987 0.758 0.0 0
M  V30 6 O 1.2995 3.7633 0.0 0
M  V30 7 C 2.5991 1.5026 0.0 0
M  V30 8 C 0.0 1.5026 0.0 0
M  V30 9 C 5.1983 0.0 0.0 0
M  V30 10 C 3.8987 2.2607 0.0 0
M  V30 11 C 2.4502 -0.2165 0.0 0
M  V30 12 C -1.2995 2.2607 0.0 0
M  V30 13 C 6.4979 0.758 0.0 0
M  V30 14 O 3.8987 3.7633 0.0 0
M  V30 15 O 5.1983 1.5026 0.0 0
M  V30 16 O 3.8987 -0.758 0.0 0
M  V30 17 C 1.286 -0.758 0.0 0
M  V30 18 O -1.2995 3.7633 0.0 0
M  V30 19 O -2.5991 1.5026 0.0 0
M  V30 20 C 7.7975 0.0 0.0 0
M  V30 21 C 6.4979 2.2607 0.0 0
M  V30 22 C -3.8987 2.2607 0.0 0
M  V30 23 C 7.7975 1.5026 0.0 0
M  V30 24 C -5.1983 1.5026 0.0 0
M  V30 25 C 9.0971 2.2607 0.0 0
M  V30 26 C -6.4979 2.2607 0.0 0
M  V30 27 C 10.3966 1.5026 0.0 0
M  V30 28 C -7.7975 1.5026 0.0 0
M  V30 END ATOM
M  V30 BEGIN BOND
M  V30 1 2 1 2
M  V30 2 1 2 3
M  V30 3 1 2 4
M  V30 4 1 3 5
M  V30 5 1 4 6
M  V30 6 1 4 7
M  V30 7 1 4 8
M  V30 8 1 5 9
M  V30 9 1 7 10
M  V30 10 1 7 11
M  V30 11 1 8 12
M  V30 12 1 9 13
M  V30 13 2 10 14
M  V30 14 1 10 15
M  V30 15 2 11 16
M  V30 16 1 11 17
M  V30 17 2 12 18
M  V30 18 1 12 19
M  V30 19 1 13 20
M  V30 20 1 15 21
M  V30 21 1 19 22
M  V30 22 1 21 23
M  V30 23 1 22 24
M  V30 24 1 23 25
M  V30 25 1 24 26
M  V30 26 1 25 27
M  V30 27 1 26 28
M  V30 END BOND
M  V30 END CTAB
M  END
>  <Molecule Name>
Acetylcitric acid, tri-n-butyl ester

>  <Activity Label>
0

>  <SMILES>
CCCCOC(CC(C(C(C)=O)C(OCCCC)=O)(C(OCCCC)=O)O)=O

>  <Molecular Formula>
C20H34O8

>  <InChIKey>
PESZCXUNMKAYME-UHFFFAOYSA-N

>  <Repellency>
Inactive

>  <Reference DOI>
10.3390/toxics11100837

>  <Target Organism>
Not applied

$$$$
Compound 1191
Actelion Java MolfileCreator 2.0

  0  0  0  0  0  0              0 V3000
M  V30 BEGIN CTAB
M  V30 COUNTS 28 27 0 0 0
M  V30 BEGIN ATOM
M  V30 1 O 0.0 0.0 0.0 0
M  V30 2 C 0.0 -1.5017 0.0 0
M  V30 3 O 1.3007 -2.2466 0.0 0
M  V30 4 C -1.3007 -2.2466 0.0 0
M  V30 5 C 2.6014 -1.5017 0.0 0
M  V30 6 C -1.3007 -3.7484 0.0 0
M  V30 7 C -2.6014 -1.5017 0.0 0
M  V30 8 C 3.9021 -2.2466 0.0 0
M  V30 9 O 0.0 -4.4933 0.0 0
M  V30 10 C -2.6014 -4.4933 0.0 0
M  V30 11 C -3.9021 -2.2466 0.0 0
M  V30 12 C 5.2028 -1.5017 0.0 0
M  V30 13 C -5.2028 -1.5017 0.0 0
M  V30 14 C 6.5035 -2.2466 0.0 0
M  V30 15 C -6.5035 -2.2466 0.0 0
M  V30 16 C -7.8043 -1.5017 0.0 0
M  V30 17 C -9.105 -2.2466 0.0 0
M  V30 18 C -10.4057 -1.5017 0.0 0
M  V30 19 C -11.7064 -2.2466 0.0 0
M  V30 20 C -11.7064 -3.7484 0.0 0
M  V30 21 C -13.0071 -4.5052 0.0 0 CFG=2
M  V30 22 O -14.3078 -3.7602 0.0 0
M  V30 23 C -13.0071 -6.0069 0.0 0
M  V30 24 C -14.3078 -6.7519 0.0 0
M  V30 25 C -14.3078 -8.2536 0.0 0
M  V30 26 C -15.6086 -9.0104 0.0 0
M  V30 27 C -15.6086 -10.5121 0.0 0
M  V30 28 C -16.9093 -11.2571 0.0 0
M  V30 END ATOM
M  V30 BEGIN BOND
M  V30 1 2 1 2
M  V30 2 1 2 3
M  V30 3 1 2 4
M  V30 4 1 3 5
M  V30 5 1 4 6
M  V30 6 1 4 7
M  V30 7 1 5 8
M  V30 8 2 6 9
M  V30 9 1 6 10
M  V30 10 1 7 11
M  V30 11 1 8 12
M  V30 12 1 11 13
M  V30 13 1 12 14
M  V30 14 1 13 15
M  V30 15 1 15 16
M  V30 16 1 16 17
M  V30 17 1 17 18
M  V30 18 2 18 19
M  V30 19 1 19 20
M  V30 20 1 20 21
M  V30 21 1 21 22 CFG=1
M  V30 22 1 21 23
M  V30 23 1 23 24
M  V30 24 1 24 25
M  V30 25 1 25 26
M  V30 26 1 26 27
M  V30 27 1 27 28
M  V30 END BOND
M  V30 BEGIN COLLECTION
M  V30 MDLV30/STEABS ATOMS=(1 21)
M  V30 END COLLECTION
M  V30 END CTAB
M  END
>  <Molecule Name>
acetylricinoleic acid, butyl ester

>  <Activity Label>
0

>  <SMILES>
CCCCCC[C@H](C/C=C\CCCCCCC(C(C)=O)C(OCCCC)=O)O

>  <Molecular Formula>
C24H44O4

>  <InChIKey>
RHDNIIBNYZENSI-WIKDNRHESA-N

>  <Repellency>
Inactive

>  <Reference DOI>
10.3390/toxics11100837

>  <Target Organism>
Not applied

$$$$
Compound 1192
Actelion Java MolfileCreator 2.0

  0  0  0  0  0  0              0 V3000
M  V30 BEGIN CTAB
M  V30 COUNTS 28 27 0 0 0
M  V30 BEGIN ATOM
M  V30 1 O 0.0 0.0 0.0 0
M  V30 2 C 0.0 1.4971 0.0 0
M  V30 3 O -1.2967 2.2515 0.0 0
M  V30 4 C 1.2967 2.2515 0.0 0
M  V30 5 C -2.5934 1.4971 0.0 0 CFG=2
M  V30 6 C 2.5934 1.4971 0.0 0
M  V30 7 C -3.8901 2.2515 0.0 0
M  V30 8 C -2.5934 0.0 0.0 0
M  V30 9 C 3.8901 2.2515 0.0 0
M  V30 10 C -5.1868 1.4971 0.0 0
M  V30 11 C 5.1868 1.4971 0.0 0
M  V30 12 C -6.4836 2.2515 0.0 0
M  V30 13 C 6.4836 2.2515 0.0 0
M  V30 14 C -7.7803 1.4971 0.0 0
M  V30 15 C 7.7803 1.4971 0.0 0
M  V30 16 C -9.077 2.2515 0.0 0
M  V30 17 C 9.077 2.2515 0.0 0
M  V30 18 C -10.3737 1.4971 0.0 0
M  V30 19 C 10.3737 1.4971 0.0 0
M  V30 20 C 11.6704 2.2515 0.0 0
M  V30 21 C 12.9672 1.4971 0.0 0
M  V30 22 C 14.2639 2.2515 0.0 0
M  V30 23 C 15.5606 1.4971 0.0 0
M  V30 24 C 16.8573 2.2515 0.0 0
M  V30 25 C 18.154 1.4971 0.0 0
M  V30 26 C 19.4508 2.2515 0.0 0
M  V30 27 C 20.7475 1.4971 0.0 0
M  V30 28 C 22.0442 2.2515 0.0 0
M  V30 END ATOM
M  V30 BEGIN BOND
M  V30 1 2 1 2
M  V30 2 1 2 3
M  V30 3 1 2 4
M  V30 4 1 3 5
M  V30 5 1 4 6
M  V30 6 1 5 7
M  V30 7 1 5 8 CFG=1
M  V30 8 1 6 9
M  V30 9 1 7 10
M  V30 10 1 9 11
M  V30 11 1 10 12
M  V30 12 1 11 13
M  V30 13 1 12 14
M  V30 14 1 13 15
M  V30 15 1 14 16
M  V30 16 1 15 17
M  V30 17 1 16 18
M  V30 18 1 17 19
M  V30 19 1 19 20
M  V30 20 1 20 21
M  V30 21 1 21 22
M  V30 22 1 22 23
M  V30 23 1 23 24
M  V30 24 1 24 25
M  V30 25 1 25 26
M  V30 26 1 26 27
M  V30 27 1 27 28
M  V30 END BOND
M  V30 BEGIN COLLECTION
M  V30 MDLV30/STERAC1 ATOMS=(1 5)
M  V30 END COLLECTION
M  V30 END CTAB
M  END
>  <Molecule Name>
Octadecanoic acid, 2-octyl ester

>  <Activity Label>
0

>  <SMILES>
CCCCCCCCCCCCCCCCCC(OC(C)CCCCCC)=O

>  <Molecular Formula>
C26H52O2

>  <InChIKey>
OMJRVNYAQYMXFR-UHFFFAOYSA-N

>  <Repellency>
Inactive

>  <Reference DOI>
10.3390/toxics11100837

>  <Target Organism>
Not applied

$$$$
Compound 1193
Actelion Java MolfileCreator 2.0

  0  0  0  0  0  0              0 V3000
M  V30 BEGIN CTAB
M  V30 COUNTS 28 27 0 0 0
M  V30 BEGIN ATOM
M  V30 1 O 0.0 0.0 0.0 0
M  V30 2 C 1.3004 0.7475 0.0 0
M  V30 3 C -1.3004 0.7475 0.0 0
M  V30 4 C 2.6009 0.0 0.0 0
M  V30 5 C -2.6009 0.0 0.0 0
M  V30 6 O 3.9014 0.7475 0.0 0
M  V30 7 O -3.9014 0.7475 0.0 0
M  V30 8 C 5.2018 0.0 0.0 0
M  V30 9 C -5.2018 0.0 0.0 0
M  V30 10 C 6.5023 0.7475 0.0 0
M  V30 11 C -6.5023 0.7475 0.0 0
M  V30 12 O 7.8028 0.0 0.0 0
M  V30 13 O -7.8028 0.0 0.0 0
M  V30 14 C 9.1032 0.7475 0.0 0
M  V30 15 C -9.1032 0.7475 0.0 0
M  V30 16 C 10.4037 0.0 0.0 0
M  V30 17 C -10.4037 0.0 0.0 0
M  V30 18 O 11.7042 0.7475 0.0 0
M  V30 19 O -11.7042 0.7475 0.0 0
M  V30 20 C 13.0047 0.0 0.0 0
M  V30 21 C -13.0047 0.0 0.0 0
M  V30 22 C 14.3051 0.7475 0.0 0
M  V30 23 C -14.3051 0.7475 0.0 0
M  V30 24 O 15.6056 0.0 0.0 0
M  V30 25 O -15.6056 0.0 0.0 0
M  V30 26 C 16.9061 0.7475 0.0 0
M  V30 27 C 18.2065 0.0 0.0 0
M  V30 28 O 19.507 0.7475 0.0 0
M  V30 END ATOM
M  V30 BEGIN BOND
M  V30 1 1 1 2
M  V30 2 1 1 3
M  V30 3 1 2 4
M  V30 4 1 3 5
M  V30 5 1 4 6
M  V30 6 1 5 7
M  V30 7 1 6 8
M  V30 8 1 7 9
M  V30 9 1 8 10
M  V30 10 1 9 11
M  V30 11 1 10 12
M  V30 12 1 11 13
M  V30 13 1 12 14
M  V30 14 1 13 15
M  V30 15 1 14 16
M  V30 16 1 15 17
M  V30 17 1 16 18
M  V30 18 1 17 19
M  V30 19 1 18 20
M  V30 20 1 19 21
M  V30 21 1 20 22
M  V30 22 1 21 23
M  V30 23 1 22 24
M  V30 24 1 23 25
M  V30 25 1 24 26
M  V30 26 1 26 27
M  V30 27 1 27 28
M  V30 END BOND
M  V30 END CTAB
M  END
>  <Molecule Name>
Nonaethylene glycol

>  <Activity Label>
0

>  <SMILES>
OCCOCCOCCOCCOCCOCCOCCOCCOCCO

>  <Molecular Formula>
C18H38O10

>  <InChIKey>
YZUUTMGDONTGTN-UHFFFAOYSA-N

>  <Repellency>
Inactive

>  <Reference DOI>
10.3390/toxics11100837

>  <Target Organism>
Not applied

$$$$
Compound 1194
Actelion Java MolfileCreator 2.0

  0  0  0  0  0  0              0 V3000
M  V30 BEGIN CTAB
M  V30 COUNTS 28 27 0 0 0
M  V30 BEGIN ATOM
M  V30 1 O 0.0 0.0 0.0 0
M  V30 2 C 0.0 -1.5026 0.0 0
M  V30 3 O 1.3015 -2.2481 0.0 0
M  V30 4 O -1.3015 -2.2481 0.0 0
M  V30 5 C 2.603 -1.5026 0.0 0
M  V30 6 C -2.603 -1.5026 0.0 0
M  V30 7 C 3.9046 -2.2481 0.0 0
M  V30 8 C -3.9046 -2.2481 0.0 0
M  V30 9 C 5.2061 -1.5026 0.0 0
M  V30 10 C -5.2061 -1.5026 0.0 0
M  V30 11 C 6.5077 -2.2481 0.0 0
M  V30 12 C -6.5077 -2.2481 0.0 0
M  V30 13 C 7.8092 -1.5026 0.0 0
M  V30 14 C -7.8092 -1.5026 0.0 0
M  V30 15 C 9.1108 -2.2481 0.0 0
M  V30 16 C -9.1108 -2.2481 0.0 0
M  V30 17 C 10.4123 -1.5026 0.0 0
M  V30 18 C -10.4123 -1.5026 0.0 0
M  V30 19 C 11.7139 -2.2481 0.0 0
M  V30 20 C -11.7139 -2.2481 0.0 0
M  V30 21 C 13.0154 -1.5026 0.0 0
M  V30 22 C -13.0154 -1.5026 0.0 0
M  V30 23 C 14.317 -2.2481 0.0 0
M  V30 24 C -14.317 -2.2481 0.0 0
M  V30 25 C 15.6185 -1.5026 0.0 0
M  V30 26 C -15.6185 -1.5026 0.0 0
M  V30 27 C 16.92 -2.2481 0.0 0
M  V30 28 C -16.92 -2.2481 0.0 0
M  V30 END ATOM
M  V30 BEGIN BOND
M  V30 1 2 1 2
M  V30 2 1 2 3
M  V30 3 1 2 4
M  V30 4 1 3 5
M  V30 5 1 4 6
M  V30 6 1 5 7
M  V30 7 1 6 8
M  V30 8 1 7 9
M  V30 9 1 8 10
M  V30 10 1 9 11
M  V30 11 1 10 12
M  V30 12 1 11 13
M  V30 13 1 12 14
M  V30 14 1 13 15
M  V30 15 1 14 16
M  V30 16 1 15 17
M  V30 17 1 16 18
M  V30 18 1 17 19
M  V30 19 1 18 20
M  V30 20 1 19 21
M  V30 21 1 20 22
M  V30 22 1 21 23
M  V30 23 1 22 24
M  V30 24 1 23 25
M  V30 25 1 24 26
M  V30 26 1 25 27
M  V30 27 1 26 28
M  V30 END BOND
M  V30 END CTAB
M  END
>  <Molecule Name>
Carbonic acid, didodecyl ester

>  <Activity Label>
0

>  <SMILES>
CCCCCCCCCCCCOC(OCCCCCCCCCCCC)=O

>  <Molecular Formula>
C25H50O3

>  <InChIKey>
GOAUNPQUDWQWCP-UHFFFAOYSA-N

>  <Repellency>
Inactive

>  <Reference DOI>
10.3390/toxics11100837

>  <Target Organism>
Not applied

$$$$
Compound 1195
Actelion Java MolfileCreator 2.0

  0  0  0  0  0  0              0 V3000
M  V30 BEGIN CTAB
M  V30 COUNTS 28 27 0 0 0
M  V30 BEGIN ATOM
M  V30 1 O 0.0 0.0 0.0 0
M  V30 2 C -1.3003 0.7565 0.0 0
M  V30 3 O -2.6006 0.0118 0.0 0
M  V30 4 C -1.3003 2.2578 0.0 0
M  V30 5 C -3.901 0.7565 0.0 0
M  V30 6 O -1.3003 3.7591 0.0 0
M  V30 7 C 0.0 1.5131 0.0 0
M  V30 8 C -2.6006 1.5131 0.0 0
M  V30 9 C -5.2013 0.0118 0.0 0
M  V30 10 C 1.3003 2.2578 0.0 0
M  V30 11 C -3.901 2.2578 0.0 0
M  V30 12 C -6.5017 0.7565 0.0 0
M  V30 13 O 1.3003 3.7591 0.0 0
M  V30 14 O 2.6006 1.5131 0.0 0
M  V30 15 O -5.2013 1.5131 0.0 0
M  V30 16 O -3.901 3.7591 0.0 0
M  V30 17 C -6.5017 2.2578 0.0 0
M  V30 18 C -7.802 0.0 0.0 0
M  V30 19 C 3.901 2.2578 0.0 0
M  V30 20 C -2.6006 4.5039 0.0 0
M  V30 21 C 5.2013 1.5131 0.0 0
M  V30 22 C -2.6006 6.0052 0.0 0
M  V30 23 C 6.5017 2.2578 0.0 0
M  V30 24 C -1.3003 6.7618 0.0 0
M  V30 25 C 7.802 1.5131 0.0 0
M  V30 26 C 6.5017 3.7591 0.0 0
M  V30 27 C 0.0 6.017 0.0 0
M  V30 28 C -1.3003 8.2631 0.0 0
M  V30 END ATOM
M  V30 BEGIN BOND
M  V30 1 2 1 2
M  V30 2 1 2 3
M  V30 3 1 2 4
M  V30 4 1 3 5
M  V30 5 1 4 6
M  V30 6 1 4 7
M  V30 7 1 4 8
M  V30 8 1 5 9
M  V30 9 1 7 10
M  V30 10 1 8 11
M  V30 11 1 9 12
M  V30 12 2 10 13
M  V30 13 1 10 14
M  V30 14 2 11 15
M  V30 15 1 11 16
M  V30 16 1 12 17
M  V30 17 1 12 18
M  V30 18 1 14 19
M  V30 19 1 16 20
M  V30 20 1 19 21
M  V30 21 1 20 22
M  V30 22 1 21 23
M  V30 23 1 22 24
M  V30 24 1 23 25
M  V30 25 1 23 26
M  V30 26 1 24 27
M  V30 27 1 24 28
M  V30 END BOND
M  V30 END CTAB
M  END
>  <Molecule Name>
Citric acid, tri-iso-amyl ester

>  <Activity Label>
0

>  <SMILES>
CC(C)CCOC(CC(CC(OCCC(C)C)=O)(C(OCCC(C)C)=O)O)=O

>  <Molecular Formula>
C21H38O7

>  <InChIKey>
ZGJMYWFCNCIEFN-UHFFFAOYSA-N

>  <Repellency>
Inactive

>  <Reference DOI>
10.3390/toxics11100837

>  <Target Organism>
Not applied

$$$$
Compound 1196
Actelion Java MolfileCreator 2.0

  0  0  0  0  0  0              0 V3000
M  V30 BEGIN CTAB
M  V30 COUNTS 28 27 0 0 0
M  V30 BEGIN ATOM
M  V30 1 O 0.0 0.0 0.0 0
M  V30 2 C 0.0 -1.4996 0.0 0
M  V30 3 N -1.2989 -2.2553 0.0 0
M  V30 4 C 1.2989 -2.2553 0.0 0
M  V30 5 C -1.2989 -3.755 0.0 0
M  V30 6 C -2.5978 -1.5114 0.0 0
M  V30 7 C 2.5978 -1.5114 0.0 0
M  V30 8 C 0.0 -4.4989 0.0 0
M  V30 9 C -3.8967 -2.2671 0.0 0
M  V30 10 C 3.8967 -2.2671 0.0 0
M  V30 11 C 0.0 -5.9985 0.0 0
M  V30 12 C -5.1956 -1.5232 0.0 0
M  V30 13 C 5.1956 -1.5232 0.0 0
M  V30 14 C 1.2989 -6.7542 0.0 0
M  V30 15 C -6.4945 -2.2789 0.0 0
M  V30 16 C 6.4945 -2.2789 0.0 0
M  V30 17 C 7.7934 -1.535 0.0 0
M  V30 18 C 9.0923 -2.2907 0.0 0
M  V30 19 C 10.3912 -1.5468 0.0 0
M  V30 20 C 11.6901 -2.3025 0.0 0
M  V30 21 C 12.989 -1.5586 0.0 0
M  V30 22 C 14.2879 -2.3144 0.0 0
M  V30 23 C 15.5868 -1.5704 0.0 0
M  V30 24 C 16.8857 -2.3262 0.0 0
M  V30 25 C 18.1846 -1.5822 0.0 0
M  V30 26 C 19.4835 -2.338 0.0 0
M  V30 27 C 20.7824 -1.5941 0.0 0
M  V30 28 C 22.0813 -2.3498 0.0 0
M  V30 END ATOM
M  V30 BEGIN BOND
M  V30 1 2 1 2
M  V30 2 1 2 3
M  V30 3 1 2 4
M  V30 4 1 3 5
M  V30 5 1 3 6
M  V30 6 1 4 7
M  V30 7 1 5 8
M  V30 8 1 6 9
M  V30 9 1 7 10
M  V30 10 1 8 11
M  V30 11 1 9 12
M  V30 12 1 10 13
M  V30 13 1 11 14
M  V30 14 1 12 15
M  V30 15 1 13 16
M  V30 16 1 16 17
M  V30 17 1 17 18
M  V30 18 1 18 19
M  V30 19 1 19 20
M  V30 20 1 20 21
M  V30 21 1 21 22
M  V30 22 1 22 23
M  V30 23 1 23 24
M  V30 24 1 24 25
M  V30 25 1 25 26
M  V30 26 1 26 27
M  V30 27 1 27 28
M  V30 END BOND
M  V30 END CTAB
M  END
>  <Molecule Name>
N-Octadecanoyldibutylamine

>  <Activity Label>
0

>  <SMILES>
CCCCCCCCCCCCCCCCCC(N(CCCC)CCCC)=O

>  <Molecular Formula>
C26H53NO

>  <InChIKey>
OBPFYQODGYGZPG-UHFFFAOYSA-N

>  <Repellency>
Inactive

>  <Reference DOI>
10.3390/toxics11100837

>  <Target Organism>
Not applied

$$$$
Compound 1197
Actelion Java MolfileCreator 2.0

  0  0  0  0  0  0              0 V3000
M  V30 BEGIN CTAB
M  V30 COUNTS 29 28 0 0 0
M  V30 BEGIN ATOM
M  V30 1 O 0.0 0.0 0.0 0
M  V30 2 C 0.0 -1.5021 0.0 0
M  V30 3 O 1.3011 -2.2473 0.0 0
M  V30 4 C -1.3011 -2.2473 0.0 0
M  V30 5 C 2.6022 -1.5021 0.0 0
M  V30 6 C -2.6022 -1.5021 0.0 0
M  V30 7 C 3.9033 -2.2473 0.0 0
M  V30 8 C -3.9033 -2.2473 0.0 0
M  V30 9 C 5.2044 -1.5021 0.0 0
M  V30 10 C 3.9033 -3.7495 0.0 0
M  V30 11 C -5.2044 -1.5021 0.0 0
M  V30 12 C 6.5055 -2.2473 0.0 0
M  V30 13 C 5.2044 -4.5065 0.0 0
M  V30 14 C -6.5055 -2.2473 0.0 0
M  V30 15 C 7.8066 -1.5021 0.0 0
M  V30 16 C -7.8066 -1.5021 0.0 0
M  V30 17 C 9.1077 -2.2473 0.0 0
M  V30 18 C -9.1077 -2.2473 0.0 0
M  V30 19 C -10.4088 -1.5021 0.0 0
M  V30 20 O -10.4088 0.0 0.0 0
M  V30 21 O -11.7099 -2.2473 0.0 0
M  V30 22 C -13.011 -1.5021 0.0 0
M  V30 23 C -14.3121 -2.2473 0.0 0
M  V30 24 C -15.6132 -1.5021 0.0 0
M  V30 25 C -14.3121 -3.7495 0.0 0
M  V30 26 C -16.9143 -2.2473 0.0 0
M  V30 27 C -13.011 -4.4947 0.0 0
M  V30 28 C -18.2154 -1.5021 0.0 0
M  V30 29 C -19.5165 -2.2473 0.0 0
M  V30 END ATOM
M  V30 BEGIN BOND
M  V30 1 2 1 2
M  V30 2 1 2 3
M  V30 3 1 2 4
M  V30 4 1 3 5
M  V30 5 1 4 6
M  V30 6 1 5 7
M  V30 7 1 6 8
M  V30 8 1 7 9
M  V30 9 1 7 10
M  V30 10 1 8 11
M  V30 11 1 9 12
M  V30 12 1 10 13
M  V30 13 1 11 14
M  V30 14 1 12 15
M  V30 15 1 14 16
M  V30 16 1 15 17
M  V30 17 1 16 18
M  V30 18 1 18 19
M  V30 19 2 19 20
M  V30 20 1 19 21
M  V30 21 1 21 22
M  V30 22 1 22 23
M  V30 23 1 23 24
M  V30 24 1 23 25
M  V30 25 1 24 26
M  V30 26 1 25 27
M  V30 27 1 26 28
M  V30 28 1 28 29
M  V30 END BOND
M  V30 END CTAB
M  END
>  <Molecule Name>
Azelaic acid, di-(2-ethylhexyl) ester

>  <Activity Label>
0

>  <SMILES>
CCCCC(CC)COC(CCCCCCCC(OCC(CC)CCCC)=O)=O

>  <Molecular Formula>
C25H48O4

>  <InChIKey>
ZDWGXBPVPXVXMQ-UHFFFAOYSA-N

>  <Repellency>
Inactive

>  <Reference DOI>
10.3390/toxics11100837

>  <Target Organism>
Not applied

$$$$
Compound 1198
Actelion Java MolfileCreator 2.0

  0  0  0  0  0  0              0 V3000
M  V30 BEGIN CTAB
M  V30 COUNTS 29 28 0 0 0
M  V30 BEGIN ATOM
M  V30 1 O 0.0 0.0 0.0 0
M  V30 2 C 0.0 -1.5025 0.0 0
M  V30 3 O 1.3014 -2.2479 0.0 0
M  V30 4 C -1.3014 -2.2479 0.0 0
M  V30 5 C 2.6029 -1.5025 0.0 0
M  V30 6 C -2.6029 -1.5025 0.0 0
M  V30 7 C 3.9043 -2.2479 0.0 0
M  V30 8 C -3.9043 -2.2479 0.0 0
M  V30 9 C 5.2058 -1.5025 0.0 0
M  V30 10 C -5.2058 -1.5025 0.0 0
M  V30 11 C 6.5073 -2.2479 0.0 0
M  V30 12 C -6.5073 -2.2479 0.0 0
M  V30 13 C 7.8087 -1.5025 0.0 0
M  V30 14 C -7.8087 -1.5025 0.0 0
M  V30 15 C 9.1102 -2.2479 0.0 0
M  V30 16 C -9.1102 -2.2479 0.0 0
M  V30 17 C 10.4117 -1.5025 0.0 0
M  V30 18 C -10.4117 -1.5025 0.0 0
M  V30 19 C 11.7131 -2.2479 0.0 0
M  V30 20 O -10.4117 0.0 0.0 0
M  V30 21 O -11.7131 -2.2479 0.0 0
M  V30 22 C -13.0146 -1.5025 0.0 0
M  V30 23 C -14.316 -2.2479 0.0 0
M  V30 24 C -15.6175 -1.5025 0.0 0
M  V30 25 C -16.919 -2.2479 0.0 0
M  V30 26 C -18.2204 -1.5025 0.0 0
M  V30 27 C -19.5219 -2.2479 0.0 0
M  V30 28 C -20.8234 -1.5025 0.0 0
M  V30 29 C -22.1248 -2.2479 0.0 0
M  V30 END ATOM
M  V30 BEGIN BOND
M  V30 1 2 1 2
M  V30 2 1 2 3
M  V30 3 1 2 4
M  V30 4 1 3 5
M  V30 5 1 4 6
M  V30 6 1 5 7
M  V30 7 1 6 8
M  V30 8 1 7 9
M  V30 9 1 8 10
M  V30 10 1 9 11
M  V30 11 1 10 12
M  V30 12 1 11 13
M  V30 13 1 12 14
M  V30 14 1 13 15
M  V30 15 1 14 16
M  V30 16 1 15 17
M  V30 17 1 16 18
M  V30 18 1 17 19
M  V30 19 2 18 20
M  V30 20 1 18 21
M  V30 21 1 21 22
M  V30 22 1 22 23
M  V30 23 1 23 24
M  V30 24 1 24 25
M  V30 25 1 25 26
M  V30 26 1 26 27
M  V30 27 1 27 28
M  V30 28 1 28 29
M  V30 END BOND
M  V30 END CTAB
M  END
>  <Molecule Name>
Azelaic acid, dioctyl ester

>  <Activity Label>
0

>  <SMILES>
CCCCCCCCOC(CCCCCCCC(OCCCCCCCC)=O)=O

>  <Molecular Formula>
C25H48O4

>  <InChIKey>
XWVQUJDBOICHGH-UHFFFAOYSA-N

>  <Repellency>
Inactive

>  <Reference DOI>
10.3390/toxics11100837

>  <Target Organism>
Not applied

$$$$
Compound 1199
Actelion Java MolfileCreator 2.0

  0  0  0  0  0  0              0 V3000
M  V30 BEGIN CTAB
M  V30 COUNTS 29 28 0 0 0
M  V30 BEGIN ATOM
M  V30 1 P 0.0 0.0 0.0 0
M  V30 2 O 0.0 -1.5017 0.0 0
M  V30 3 O 1.3007 -0.7449 0.0 0
M  V30 4 O 0.0 1.5017 0.0 0
M  V30 5 O -1.3007 -0.7449 0.0 0
M  V30 6 C 2.6014 0.0 0.0 0
M  V30 7 C 1.3007 2.2467 0.0 0
M  V30 8 C -2.6014 0.0 0.0 0
M  V30 9 C 3.9022 -0.7449 0.0 0
M  V30 10 C 1.3007 3.7485 0.0 0
M  V30 11 C -3.9022 -0.7449 0.0 0
M  V30 12 C 5.2029 0.0 0.0 0
M  V30 13 C 2.6014 4.5053 0.0 0
M  V30 14 C -5.2029 0.0 0.0 0
M  V30 15 C 6.5037 -0.7449 0.0 0
M  V30 16 C 2.6014 6.007 0.0 0
M  V30 17 C -6.5037 -0.7449 0.0 0
M  V30 18 C 7.8044 0.0 0.0 0
M  V30 19 C 3.9022 6.752 0.0 0
M  V30 20 C -7.8044 0.0 0.0 0
M  V30 21 C 9.1052 -0.7449 0.0 0
M  V30 22 C 3.9022 8.2538 0.0 0
M  V30 23 C -9.1052 -0.7449 0.0 0
M  V30 24 C 10.4059 0.0 0.0 0
M  V30 25 C 5.2029 9.0106 0.0 0
M  V30 26 C -10.4059 0.0 0.0 0
M  V30 27 C 11.7067 -0.7449 0.0 0
M  V30 28 C 5.2029 10.5124 0.0 0
M  V30 29 C -11.7067 -0.7449 0.0 0
M  V30 END ATOM
M  V30 BEGIN BOND
M  V30 1 2 1 2
M  V30 2 1 1 3
M  V30 3 1 1 4
M  V30 4 1 1 5
M  V30 5 1 3 6
M  V30 6 1 4 7
M  V30 7 1 5 8
M  V30 8 1 6 9
M  V30 9 1 7 10
M  V30 10 1 8 11
M  V30 11 1 9 12
M  V30 12 1 10 13
M  V30 13 1 11 14
M  V30 14 1 12 15
M  V30 15 1 13 16
M  V30 16 1 14 17
M  V30 17 1 15 18
M  V30 18 1 16 19
M  V30 19 1 17 20
M  V30 20 1 18 21
M  V30 21 1 19 22
M  V30 22 1 20 23
M  V30 23 1 21 24
M  V30 24 1 22 25
M  V30 25 1 23 26
M  V30 26 1 24 27
M  V30 27 1 25 28
M  V30 28 1 26 29
M  V30 END BOND
M  V30 END CTAB
M  END
>  <Molecule Name>
Phosphoric acid, trioctyl ester

>  <Activity Label>
0

>  <SMILES>
CCCCCCCCOP(OCCCCCCCC)(OCCCCCCCC)=O

>  <Molecular Formula>
C24H51O4P

>  <InChIKey>
WVPGXJOLGGFBCR-UHFFFAOYSA-N

>  <Repellency>
Inactive

>  <Reference DOI>
10.3390/toxics11100837

>  <Target Organism>
Not applied

$$$$
Compound 1200
Actelion Java MolfileCreator 2.0

  0  0  0  0  0  0              0 V3000
M  V30 BEGIN CTAB
M  V30 COUNTS 29 28 0 0 0
M  V30 BEGIN ATOM
M  V30 1 P 0.0 0.0 0.0 0
M  V30 2 O 0.0 -1.5014 0.0 0
M  V30 3 O 1.3004 -0.7448 0.0 0
M  V30 4 O 0.0 1.5014 0.0 0
M  V30 5 O -1.3004 -0.7448 0.0 0
M  V30 6 C 2.6009 0.0 0.0 0
M  V30 7 C 1.3004 2.2462 0.0 0
M  V30 8 C -2.6009 0.0 0.0 0
M  V30 9 C 3.9014 -0.7448 0.0 0
M  V30 10 C 1.3004 3.7477 0.0 0
M  V30 11 C -3.9014 -0.7448 0.0 0
M  V30 12 C 5.2019 0.0 0.0 0
M  V30 13 C 3.9014 -2.2462 0.0 0
M  V30 14 C 2.6009 4.4925 0.0 0
M  V30 15 C 0.0 4.5043 0.0 0
M  V30 16 C -5.2019 0.0 0.0 0
M  V30 17 C -3.9014 -2.2462 0.0 0
M  V30 18 C 6.5023 -0.7448 0.0 0
M  V30 19 C 5.2019 -3.0029 0.0 0
M  V30 20 C 2.6009 5.994 0.0 0
M  V30 21 C -1.3004 3.7595 0.0 0
M  V30 22 C -6.5023 -0.7448 0.0 0
M  V30 23 C -2.6009 -2.9911 0.0 0
M  V30 24 C 7.8028 0.0 0.0 0
M  V30 25 C 3.9014 6.7506 0.0 0
M  V30 26 C -7.8028 0.0 0.0 0
M  V30 27 C 9.1033 -0.7448 0.0 0
M  V30 28 C 3.9014 8.2521 0.0 0
M  V30 29 C -9.1033 -0.7448 0.0 0
M  V30 END ATOM
M  V30 BEGIN BOND
M  V30 1 2 1 2
M  V30 2 1 1 3
M  V30 3 1 1 4
M  V30 4 1 1 5
M  V30 5 1 3 6
M  V30 6 1 4 7
M  V30 7 1 5 8
M  V30 8 1 6 9
M  V30 9 1 7 10
M  V30 10 1 8 11
M  V30 11 1 9 12
M  V30 12 1 9 13
M  V30 13 1 10 14
M  V30 14 1 10 15
M  V30 15 1 11 16
M  V30 16 1 11 17
M  V30 17 1 12 18
M  V30 18 1 13 19
M  V30 19 1 14 20
M  V30 20 1 15 21
M  V30 21 1 16 22
M  V30 22 1 17 23
M  V30 23 1 18 24
M  V30 24 1 20 25
M  V30 25 1 22 26
M  V30 26 1 24 27
M  V30 27 1 25 28
M  V30 28 1 26 29
M  V30 END BOND
M  V30 END CTAB
M  END
>  <Molecule Name>
Phosphoric acid, tri-(2-ethyl-hexyl) ester

>  <Activity Label>
0

>  <SMILES>
CCCCC(CC)COP(OCC(CC)CCCC)(OCC(CC)CCCC)=O

>  <Molecular Formula>
C24H51O4P

>  <InChIKey>
GTVWRXDRKAHEAD-UHFFFAOYSA-N

>  <Repellency>
Inactive

>  <Reference DOI>
10.3390/toxics11100837

>  <Target Organism>
Not applied

$$$$
Compound 1201
Actelion Java MolfileCreator 2.0

  0  0  0  0  0  0              0 V3000
M  V30 BEGIN CTAB
M  V30 COUNTS 30 29 0 0 0
M  V30 BEGIN ATOM
M  V30 1 O 0.0 0.0 0.0 0
M  V30 2 C 0.0 -1.5024 0.0 0
M  V30 3 O 1.3013 -2.2477 0.0 0
M  V30 4 C -1.3013 -2.2477 0.0 0
M  V30 5 C 2.6026 -1.5024 0.0 0
M  V30 6 C -2.6026 -1.5024 0.0 0
M  V30 7 C 3.9039 -2.2477 0.0 0
M  V30 8 C 2.6026 0.0 0.0 0
M  V30 9 C -3.9039 -2.2477 0.0 0
M  V30 10 C 5.2052 -1.5024 0.0 0
M  V30 11 C -5.2052 -1.5024 0.0 0
M  V30 12 C 6.5065 -2.2477 0.0 0
M  V30 13 C -6.5065 -2.2477 0.0 0
M  V30 14 C 7.8078 -1.5024 0.0 0
M  V30 15 C -7.8078 -1.5024 0.0 0
M  V30 16 C 9.1091 -2.2477 0.0 0
M  V30 17 C -9.1091 -2.2477 0.0 0
M  V30 18 C 10.4104 -1.5024 0.0 0
M  V30 19 C -10.4104 -1.5024 0.0 0
M  V30 20 C -11.7117 -2.2477 0.0 0
M  V30 21 O -11.7117 -3.7501 0.0 0
M  V30 22 O -13.013 -1.5024 0.0 0
M  V30 23 C -14.3143 -2.2477 0.0 0
M  V30 24 C -15.6156 -1.5024 0.0 0
M  V30 25 C -14.3143 -3.7501 0.0 0
M  V30 26 C -16.9169 -2.2477 0.0 0
M  V30 27 C -18.2182 -1.5024 0.0 0
M  V30 28 C -19.5195 -2.2477 0.0 0
M  V30 29 C -20.8208 -1.5024 0.0 0
M  V30 30 C -22.1221 -2.2477 0.0 0
M  V30 END ATOM
M  V30 BEGIN BOND
M  V30 1 2 1 2
M  V30 2 1 2 3
M  V30 3 1 2 4
M  V30 4 1 3 5
M  V30 5 1 4 6
M  V30 6 1 5 7
M  V30 7 1 5 8
M  V30 8 1 6 9
M  V30 9 1 7 10
M  V30 10 1 9 11
M  V30 11 1 10 12
M  V30 12 1 11 13
M  V30 13 1 12 14
M  V30 14 1 13 15
M  V30 15 1 14 16
M  V30 16 1 15 17
M  V30 17 1 16 18
M  V30 18 1 17 19
M  V30 19 1 19 20
M  V30 20 2 20 21
M  V30 21 1 20 22
M  V30 22 1 22 23
M  V30 23 1 23 24
M  V30 24 1 23 25
M  V30 25 1 24 26
M  V30 26 1 26 27
M  V30 27 1 27 28
M  V30 28 1 28 29
M  V30 29 1 29 30
M  V30 END BOND
M  V30 END CTAB
M  END
>  <Molecule Name>
Sebacic acid, di-(2-octyl) ester

>  <Activity Label>
0

>  <SMILES>
CCCCCCC(C)OC(CCCCCCCCC(OC(C)CCCCCC)=O)=O

>  <Molecular Formula>
C26H50O4

>  <InChIKey>
GCODXQZNEMRCBU-UHFFFAOYSA-N

>  <Repellency>
Inactive

>  <Reference DOI>
10.3390/toxics11100837

>  <Target Organism>
Not applied

$$$$
Compound 1202
Actelion Java MolfileCreator 2.0

  0  0  0  0  0  0              0 V3000
M  V30 BEGIN CTAB
M  V30 COUNTS 30 29 0 0 0
M  V30 BEGIN ATOM
M  V30 1 O 0.0 0.0 0.0 0
M  V30 2 C 0.0 -1.5022 0.0 0
M  V30 3 N 1.3011 -2.2473 0.0 0
M  V30 4 C -1.3011 -2.2473 0.0 0
M  V30 5 C 2.6022 -1.5022 0.0 0
M  V30 6 C 1.3011 -3.7496 0.0 0
M  V30 7 C -2.6022 -1.5022 0.0 0
M  V30 8 C 3.9033 -2.2473 0.0 0
M  V30 9 C 0.0 -4.5066 0.0 0
M  V30 10 C -3.9033 -2.2473 0.0 0
M  V30 11 C 5.2044 -1.5022 0.0 0
M  V30 12 C 0.0 -6.0088 0.0 0
M  V30 13 C -5.2044 -1.5022 0.0 0
M  V30 14 C 6.5056 -2.2473 0.0 0
M  V30 15 C -1.3011 -6.754 0.0 0
M  V30 16 C -6.5056 -2.2473 0.0 0
M  V30 17 C 7.8067 -1.5022 0.0 0
M  V30 18 C -1.3011 -8.2562 0.0 0
M  V30 19 C -7.8067 -1.5022 0.0 0
M  V30 20 C -9.1078 -2.2473 0.0 0
M  V30 21 C -10.4089 -1.5022 0.0 0
M  V30 22 C -11.7101 -2.2473 0.0 0
M  V30 23 C -13.0112 -1.5022 0.0 0
M  V30 24 C -14.3123 -2.2473 0.0 0
M  V30 25 C -15.6134 -1.5022 0.0 0
M  V30 26 C -16.9146 -2.2473 0.0 0
M  V30 27 C -18.2157 -1.5022 0.0 0
M  V30 28 C -19.5168 -2.2473 0.0 0
M  V30 29 C -20.8179 -1.5022 0.0 0
M  V30 30 C -22.1191 -2.2473 0.0 0
M  V30 END ATOM
M  V30 BEGIN BOND
M  V30 1 2 1 2
M  V30 2 1 2 3
M  V30 3 1 2 4
M  V30 4 1 3 5
M  V30 5 1 3 6
M  V30 6 1 4 7
M  V30 7 1 5 8
M  V30 8 1 6 9
M  V30 9 1 7 10
M  V30 10 1 8 11
M  V30 11 1 9 12
M  V30 12 1 10 13
M  V30 13 1 11 14
M  V30 14 1 12 15
M  V30 15 1 13 16
M  V30 16 1 14 17
M  V30 17 1 15 18
M  V30 18 1 16 19
M  V30 19 1 19 20
M  V30 20 1 20 21
M  V30 21 1 21 22
M  V30 22 1 22 23
M  V30 23 1 23 24
M  V30 24 1 24 25
M  V30 25 1 25 26
M  V30 26 1 26 27
M  V30 27 1 27 28
M  V30 28 1 28 29
M  V30 29 1 29 30
M  V30 END BOND
M  V30 END CTAB
M  END
>  <Molecule Name>
N, N-Diamylstearamide

>  <Activity Label>
0

>  <SMILES>
CCCCCCCCCCCCCCCCCC(N(CCCCC)CCCCC)=O

>  <Molecular Formula>
C28H57NO

>  <InChIKey>
QQEWEPQKDVIPAR-UHFFFAOYSA-N

>  <Repellency>
Inactive

>  <Reference DOI>
10.3390/toxics11100837

>  <Target Organism>
Not applied

$$$$
Compound 1203
Actelion Java MolfileCreator 2.0

  0  0  0  0  0  0              0 V3000
M  V30 BEGIN CTAB
M  V30 COUNTS 31 34 0 0 0
M  V30 BEGIN ATOM
M  V30 1 O 0.0 0.0 0.0 0
M  V30 2 C 0.0 -1.5 0.0 0
M  V30 3 C 1.2992 -2.256 0.0 0
M  V30 4 C -1.2992 -2.2441 0.0 0
M  V30 5 C 1.2992 -3.756 0.0 0
M  V30 6 C 2.5985 -1.5118 0.0 0
M  V30 7 C -1.2992 -3.7442 0.0 0
M  V30 8 C -2.5985 -1.4882 0.0 0
M  V30 9 C 0.0 -4.5002 0.0 0
M  V30 10 C 3.8978 -2.256 0.0 0
M  V30 11 C 2.5985 -0.0118 0.0 0
M  V30 12 C -3.8978 -2.2323 0.0 0
M  V30 13 C -2.5985 0.0118 0.0 0
M  V30 14 C 0.0 -6.0002 0.0 0
M  V30 15 C 3.8978 -3.756 0.0 0
M  V30 16 C 5.197 -1.5118 0.0 0
M  V30 17 C -5.197 -1.4764 0.0 0
M  V30 18 C -3.8978 -3.7324 0.0 0
M  V30 19 C 1.2992 -6.7562 0.0 0
M  V30 20 C -1.2992 -6.7444 0.0 0
M  V30 21 C 5.197 -4.512 0.0 0
M  V30 22 C 6.4963 -2.2678 0.0 0
M  V30 23 C -6.4963 -2.2205 0.0 0
M  V30 24 C -5.197 -4.4765 0.0 0
M  V30 25 C 1.2992 -8.2562 0.0 0
M  V30 26 C 2.5985 -6.012 0.0 0
M  V30 27 C 6.4963 -3.7678 0.0 0
M  V30 28 C -6.4963 -3.7206 0.0 0
M  V30 29 C 2.5985 -9.0122 0.0 0
M  V30 30 C 3.8978 -6.768 0.0 0
M  V30 31 C 3.8978 -8.2681 0.0 0
M  V30 END ATOM
M  V30 BEGIN BOND
M  V30 1 1 1 2
M  V30 2 2 2 3
M  V30 3 1 2 4
M  V30 4 1 3 5
M  V30 5 1 3 6
M  V30 6 2 4 7
M  V30 7 1 4 8
M  V30 8 2 5 9
M  V30 9 1 6 10
M  V30 10 1 6 11
M  V30 11 1 8 12
M  V30 12 1 8 13
M  V30 13 1 9 14
M  V30 14 2 10 15
M  V30 15 1 10 16
M  V30 16 2 12 17
M  V30 17 1 12 18
M  V30 18 1 14 19
M  V30 19 1 14 20
M  V30 20 1 15 21
M  V30 21 2 16 22
M  V30 22 1 17 23
M  V30 23 2 18 24
M  V30 24 2 19 25
M  V30 25 1 19 26
M  V30 26 2 21 27
M  V30 27 2 23 28
M  V30 28 1 25 29
M  V30 29 2 26 30
M  V30 30 2 29 31
M  V30 31 1 7 9
M  V30 32 1 22 27
M  V30 33 1 24 28
M  V30 34 1 30 31
M  V30 END BOND
M  V30 END CTAB
M  END
>  <Molecule Name>
2,4,6-Tri-(alpha-phenylethyl) phenol

>  <Activity Label>
0

>  <SMILES>
CC(c1ccccc1)c(cc1C(C)c2ccccc2)cc(C(C)c2ccccc2)c1O

>  <Molecular Formula>
C30H30O

>  <InChIKey>
BYLSIPUARIZAHZ-UHFFFAOYSA-N

>  <Repellency>
Inactive

>  <Reference DOI>
10.3390/toxics11100837

>  <Target Organism>
Not applied

$$$$
Compound 1204
Actelion Java MolfileCreator 2.0

  0  0  0  0  0  0              0 V3000
M  V30 BEGIN CTAB
M  V30 COUNTS 31 30 0 0 0
M  V30 BEGIN ATOM
M  V30 1 O 0.0 0.0 0.0 0
M  V30 2 C -1.3009 0.7451 0.0 0
M  V30 3 O -2.6019 0.0 0.0 0
M  V30 4 C -1.3009 2.2471 0.0 0
M  V30 5 C -3.9029 0.7451 0.0 0
M  V30 6 O -1.3009 3.7491 0.0 0
M  V30 7 C 0.0 1.502 0.0 0
M  V30 8 C -2.6019 1.502 0.0 0
M  V30 9 C -5.2038 0.0 0.0 0
M  V30 10 C 1.3009 2.2471 0.0 0
M  V30 11 C -3.9029 2.2471 0.0 0
M  V30 12 C -6.5048 0.7451 0.0 0
M  V30 13 O 1.3009 3.7491 0.0 0
M  V30 14 O 2.6019 1.502 0.0 0
M  V30 15 O -3.9029 3.7491 0.0 0
M  V30 16 O -5.2038 1.502 0.0 0
M  V30 17 C -7.8058 -0.0118 0.0 0
M  V30 18 C 3.9029 2.2471 0.0 0
M  V30 19 C -6.5048 2.2471 0.0 0
M  V30 20 C -9.1067 0.7451 0.0 0
M  V30 21 C 5.2038 1.502 0.0 0
M  V30 22 C -7.8058 1.502 0.0 0
M  V30 23 C -10.4077 0.0 0.0 0
M  V30 24 C 6.5048 2.2471 0.0 0
M  V30 25 C -9.1067 2.2471 0.0 0
M  V30 26 C 7.8058 1.502 0.0 0
M  V30 27 C -10.4077 1.502 0.0 0
M  V30 28 C 9.1067 2.2471 0.0 0
M  V30 29 C -11.7087 2.2471 0.0 0
M  V30 30 C 10.4077 1.502 0.0 0
M  V30 31 C -13.0097 1.502 0.0 0
M  V30 END ATOM
M  V30 BEGIN BOND
M  V30 1 2 1 2
M  V30 2 1 2 3
M  V30 3 1 2 4
M  V30 4 1 3 5
M  V30 5 1 4 6
M  V30 6 1 4 7
M  V30 7 1 4 8
M  V30 8 1 5 9
M  V30 9 1 7 10
M  V30 10 1 8 11
M  V30 11 1 9 12
M  V30 12 2 10 13
M  V30 13 1 10 14
M  V30 14 2 11 15
M  V30 15 1 11 16
M  V30 16 1 12 17
M  V30 17 1 14 18
M  V30 18 1 16 19
M  V30 19 1 17 20
M  V30 20 1 18 21
M  V30 21 1 19 22
M  V30 22 1 20 23
M  V30 23 1 21 24
M  V30 24 1 22 25
M  V30 25 1 24 26
M  V30 26 1 25 27
M  V30 27 1 26 28
M  V30 28 1 27 29
M  V30 29 1 28 30
M  V30 30 1 29 31
M  V30 END BOND
M  V30 END CTAB
M  END
>  <Molecule Name>
Citric acid, tri-n-hexyl ester

>  <Activity Label>
0

>  <SMILES>
CCCCCCOC(CC(CC(OCCCCCC)=O)(C(OCCCCCC)=O)O)=O

>  <Molecular Formula>
C24H44O7

>  <InChIKey>
AMMPRZCMKXDUNE-UHFFFAOYSA-N

>  <Repellency>
Inactive

>  <Reference DOI>
10.3390/toxics11100837

>  <Target Organism>
Not applied

$$$$
Compound 1205
Actelion Java MolfileCreator 2.0

  0  0  0  0  0  0              0 V3000
M  V30 BEGIN CTAB
M  V30 COUNTS 31 31 0 0 0
M  V30 BEGIN ATOM
M  V30 1 O 0.0 0.0 0.0 0
M  V30 2 C 0.3167 -1.4663 0.0 0
M  V30 3 N 1.6891 -2.0762 0.0 0
M  V30 4 C -0.6803 -2.5807 0.0 0
M  V30 5 C 1.5366 -3.566 0.0 0
M  V30 6 C 2.9912 -1.3255 0.0 0
M  V30 7 C -2.1701 -2.4282 0.0 0
M  V30 8 C -1.2199 -1.1847 0.0 0
M  V30 9 C 0.0703 -3.8827 0.0 0 CFG=2
M  V30 10 O 2.651 -4.5631 0.0 0
M  V30 11 C 4.2933 -2.0762 0.0 0
M  V30 12 C -3.0499 -3.6364 0.0 0
M  V30 13 C -2.698 -0.9501 0.0 0
M  V30 14 C -0.5396 -5.2552 0.0 0
M  V30 15 C 5.5954 -1.3255 0.0 0
M  V30 16 C -4.5396 -3.4839 0.0 0
M  V30 17 C -2.4399 -5.0089 0.0 0
M  V30 18 C -3.2376 0.4457 0.0 0
M  V30 19 C -3.6364 -2.1114 0.0 0
M  V30 20 C 0.3401 -6.4634 0.0 0
M  V30 21 C 6.8975 -2.0762 0.0 0
M  V30 22 C -0.2698 -7.8359 0.0 0
M  V30 23 C 1.8299 -6.3109 0.0 0
M  V30 24 C 8.1995 -1.3255 0.0 0
M  V30 25 C 9.5016 -2.0762 0.0 0
M  V30 26 C 10.8037 -1.3255 0.0 0
M  V30 27 C 12.1058 -2.0762 0.0 0
M  V30 28 C 13.4079 -1.3255 0.0 0
M  V30 29 C 14.71 -2.0762 0.0 0
M  V30 30 C 16.012 -1.3255 0.0 0
M  V30 31 C 17.3141 -2.0762 0.0 0
M  V30 END ATOM
M  V30 BEGIN BOND
M  V30 1 2 1 2
M  V30 2 1 2 3
M  V30 3 1 2 4
M  V30 4 1 3 5
M  V30 5 1 3 6
M  V30 6 1 4 7
M  V30 7 1 4 8
M  V30 8 1 4 9
M  V30 9 2 5 10
M  V30 10 1 6 11
M  V30 11 2 7 12
M  V30 12 2 8 13
M  V30 13 1 9 14 CFG=3
M  V30 14 1 11 15
M  V30 15 1 12 16
M  V30 16 1 12 17
M  V30 17 1 13 18
M  V30 18 1 13 19
M  V30 19 2 14 20
M  V30 20 1 15 21
M  V30 21 1 20 22
M  V30 22 1 20 23
M  V30 23 1 21 24
M  V30 24 1 24 25
M  V30 25 1 25 26
M  V30 26 1 26 27
M  V30 27 1 27 28
M  V30 28 1 28 29
M  V30 29 1 29 30
M  V30 30 1 30 31
M  V30 31 1 5 9
M  V30 END BOND
M  V30 BEGIN COLLECTION
M  V30 MDLV30/STERAC1 ATOMS=(1 9)
M  V30 END COLLECTION
M  V30 END CTAB
M  END
>  <Molecule Name>
N-Dodecyl tri-iso-butenyl succinimide

>  <Activity Label>
0

>  <SMILES>
CCCCCCCCCCCCN(C(C(C1(C=C(C)C)C=C(C)C)C=C(C)C)=O)C1=O

>  <Molecular Formula>
C28H47NO2

>  <InChIKey>
FDEZQSPHICWVSJ-UHFFFAOYSA-N

>  <Repellency>
Inactive

>  <Reference DOI>
10.3390/toxics11100837

>  <Target Organism>
Not applied

$$$$
Compound 1206
Actelion Java MolfileCreator 2.0

  0  0  0  0  0  0              0 V3000
M  V30 BEGIN CTAB
M  V30 COUNTS 32 31 0 0 0
M  V30 BEGIN ATOM
M  V30 1 O 0.0 0.0 0.0 0
M  V30 2 C 0.0 1.5016 0.0 0
M  V30 3 O 1.3006 2.2466 0.0 0
M  V30 4 C -1.3006 2.2466 0.0 0
M  V30 5 C 2.6013 1.5016 0.0 0
M  V30 6 C -1.3006 3.7482 0.0 0
M  V30 7 C -2.6013 1.5016 0.0 0
M  V30 8 C 3.902 2.2466 0.0 0
M  V30 9 O 0.0 4.4932 0.0 0
M  V30 10 O -2.6013 4.505 0.0 0
M  V30 11 C -3.902 2.2466 0.0 0
M  V30 12 C -2.6013 6.0067 0.0 0
M  V30 13 C -5.2026 1.5016 0.0 0
M  V30 14 C -3.902 6.7634 0.0 0
M  V30 15 C -6.5033 2.2466 0.0 0
M  V30 16 C -7.804 1.5016 0.0 0
M  V30 17 C -9.1046 2.2466 0.0 0
M  V30 18 C -10.4053 1.5016 0.0 0
M  V30 19 C -11.706 2.2466 0.0 0
M  V30 20 C -13.0066 1.5016 0.0 0
M  V30 21 C -14.3073 2.2466 0.0 0
M  V30 22 C -15.608 1.5016 0.0 0
M  V30 23 C -15.608 0.0 0.0 0
M  V30 24 C -16.9087 2.2466 0.0 0
M  V30 25 O -16.9087 -0.7449 0.0 0
M  V30 26 O -14.3073 -0.7449 0.0 0
M  V30 27 O -16.9087 3.7482 0.0 0
M  V30 28 O -18.2093 1.5016 0.0 0
M  V30 29 C -14.3073 -2.2466 0.0 0
M  V30 30 C -19.51 2.2466 0.0 0
M  V30 31 C -13.0066 -3.0033 0.0 0
M  V30 32 C -20.8107 1.5016 0.0 0
M  V30 END ATOM
M  V30 BEGIN BOND
M  V30 1 2 1 2
M  V30 2 1 2 3
M  V30 3 1 2 4
M  V30 4 1 3 5
M  V30 5 1 4 6
M  V30 6 1 4 7
M  V30 7 1 5 8
M  V30 8 2 6 9
M  V30 9 1 6 10
M  V30 10 1 7 11
M  V30 11 1 10 12
M  V30 12 1 11 13
M  V30 13 1 12 14
M  V30 14 1 13 15
M  V30 15 1 15 16
M  V30 16 1 16 17
M  V30 17 1 17 18
M  V30 18 1 18 19
M  V30 19 1 19 20
M  V30 20 1 20 21
M  V30 21 1 21 22
M  V30 22 1 22 23
M  V30 23 1 22 24
M  V30 24 2 23 25
M  V30 25 1 23 26
M  V30 26 2 24 27
M  V30 27 1 24 28
M  V30 28 1 26 29
M  V30 29 1 28 30
M  V30 30 1 29 31
M  V30 31 1 30 32
M  V30 END BOND
M  V30 END CTAB
M  END
>  <Molecule Name>
Dodecane-1,1,12,12-tetracarboxylic acid, tetraethyl ester

>  <Activity Label>
0

>  <SMILES>
CCOC(C(CCCCCCCCCCC(C(OCC)=O)C(OCC)=O)C(OCC)=O)=O

>  <Molecular Formula>
C24H42O8

>  <InChIKey>
GCGVREJJMUXYDD-UHFFFAOYSA-N

>  <Repellency>
Inactive

>  <Reference DOI>
10.3390/toxics11100837

>  <Target Organism>
Not applied

$$$$
Compound 1207
Actelion Java MolfileCreator 2.0

  0  0  0  0  0  0              0 V3000
M  V30 BEGIN CTAB
M  V30 COUNTS 36 36 0 0 0
M  V30 BEGIN ATOM
M  V30 1 O 0.0 0.0 0.0 0
M  V30 2 C 1.3006 -0.7449 0.0 0
M  V30 3 O 1.3006 -2.2466 0.0 0
M  V30 4 C 2.6013 0.0 0.0 0
M  V30 5 C 0.0 -2.9915 0.0 0
M  V30 6 C 2.6013 1.5016 0.0 0
M  V30 7 C 3.902 -0.7449 0.0 0
M  V30 8 C 0.0 -4.4932 0.0 0
M  V30 9 C 1.3006 2.2466 0.0 0
M  V30 10 C 3.902 2.2466 0.0 0
M  V30 11 C 5.2027 0.0 0.0 0
M  V30 12 C -1.3006 -5.2382 0.0 0
M  V30 13 O 1.3006 3.7483 0.0 0
M  V30 14 O 0.0 1.5016 0.0 0
M  V30 15 C 5.2027 1.5016 0.0 0
M  V30 16 O -2.6013 -4.4814 0.0 0
M  V30 17 C -1.3006 -6.7399 0.0 0
M  V30 18 C -1.3006 2.2466 0.0 0
M  V30 19 C -2.6013 -2.9797 0.0 0
M  V30 20 C -2.6013 -7.4848 0.0 0
M  V30 21 C -2.6013 1.5016 0.0 0
M  V30 22 C -3.902 -2.2348 0.0 0
M  V30 23 O -2.6013 -8.9865 0.0 0
M  V30 24 C -3.902 -6.7399 0.0 0
M  V30 25 C -3.902 2.2466 0.0 0
M  V30 26 C -3.902 -9.7314 0.0 0
M  V30 27 O -3.902 3.7483 0.0 0
M  V30 28 C -5.2027 1.5016 0.0 0
M  V30 29 C -3.902 -11.2331 0.0 0
M  V30 30 C -2.6013 4.4932 0.0 0
M  V30 31 C -6.5034 2.2466 0.0 0
M  V30 32 C -2.6013 5.9949 0.0 0
M  V30 33 O -7.8041 1.5016 0.0 0
M  V30 34 C -6.5034 3.7483 0.0 0
M  V30 35 C -9.1047 2.2466 0.0 0
M  V30 36 C -10.4054 1.5016 0.0 0
M  V30 END ATOM
M  V30 BEGIN BOND
M  V30 1 2 1 2
M  V30 2 1 2 3
M  V30 3 1 2 4
M  V30 4 1 3 5
M  V30 5 2 4 6
M  V30 6 1 4 7
M  V30 7 1 5 8
M  V30 8 1 6 9
M  V30 9 1 6 10
M  V30 10 2 7 11
M  V30 11 1 8 12
M  V30 12 2 9 13
M  V30 13 1 9 14
M  V30 14 2 10 15
M  V30 15 1 12 16
M  V30 16 1 12 17
M  V30 17 1 14 18
M  V30 18 1 16 19
M  V30 19 1 17 20
M  V30 20 1 18 21
M  V30 21 1 19 22
M  V30 22 1 20 23
M  V30 23 1 20 24
M  V30 24 1 21 25
M  V30 25 1 23 26
M  V30 26 1 25 27
M  V30 27 1 25 28
M  V30 28 1 26 29
M  V30 29 1 27 30
M  V30 30 1 28 31
M  V30 31 1 30 32
M  V30 32 1 31 33
M  V30 33 1 31 34
M  V30 34 1 33 35
M  V30 35 1 35 36
M  V30 36 1 11 15
M  V30 END BOND
M  V30 END CTAB
M  END
>  <Molecule Name>
Phthalic acid, di-(3,5-diethoxy-hexyl) ester

>  <Activity Label>
0

>  <SMILES>
CCOC(C)CC(CCOC(c(cccc1)c1C(OCCC(CC(C)OCC)OCC)=O)=O)OCC

>  <Molecular Formula>
C28H46O8

>  <InChIKey>
MRUYNFFLLDNGAX-UHFFFAOYSA-N

>  <Repellency>
Inactive

>  <Reference DOI>
10.3390/toxics11100837

>  <Target Organism>
Not applied

$$$$
Compound 1208
Actelion Java MolfileCreator 2.0

  0  0  0  0  0  0              0 V3000
M  V30 BEGIN CTAB
M  V30 COUNTS 36 36 0 0 0
M  V30 BEGIN ATOM
M  V30 1 O 0.0 0.0 0.0 0
M  V30 2 C 1.3008 -0.745 0.0 0
M  V30 3 O 1.3008 -2.2468 0.0 0
M  V30 4 C 2.6016 0.0 0.0 0
M  V30 5 C 0.0 -2.9918 0.0 0
M  V30 6 C 2.6016 1.5018 0.0 0
M  V30 7 C 3.9024 -0.745 0.0 0
M  V30 8 C 0.0 -4.4937 0.0 0
M  V30 9 C 1.3008 2.2468 0.0 0
M  V30 10 C 3.9024 2.2468 0.0 0
M  V30 11 C 5.2032 0.0 0.0 0
M  V30 12 C -1.3008 -5.2387 0.0 0
M  V30 13 O 1.3008 3.7487 0.0 0
M  V30 14 O 0.0 1.5018 0.0 0
M  V30 15 C 5.2032 1.5018 0.0 0
M  V30 16 C -1.3008 -6.7406 0.0 0
M  V30 17 C -1.3008 2.2468 0.0 0
M  V30 18 C -2.6016 -7.4856 0.0 0
M  V30 19 C -2.6016 1.5018 0.0 0
M  V30 20 C -2.6016 -8.9874 0.0 0
M  V30 21 C -3.9024 2.2468 0.0 0
M  V30 22 C -3.9024 -9.7324 0.0 0
M  V30 23 C -5.2032 1.5018 0.0 0
M  V30 24 C -3.9024 -11.2343 0.0 0
M  V30 25 C -6.504 2.2468 0.0 0
M  V30 26 C -5.2032 -11.9911 0.0 0
M  V30 27 C -7.8049 1.5018 0.0 0
M  V30 28 C -5.2032 -13.493 0.0 0
M  V30 29 C -9.1057 2.2468 0.0 0
M  V30 30 C -6.504 -14.238 0.0 0
M  V30 31 C -10.4065 1.5018 0.0 0
M  V30 32 C -6.504 -15.7399 0.0 0
M  V30 33 C -11.7073 2.2468 0.0 0
M  V30 34 C -13.0081 1.5018 0.0 0
M  V30 35 C -14.309 2.2468 0.0 0
M  V30 36 C -15.6098 1.5018 0.0 0
M  V30 END ATOM
M  V30 BEGIN BOND
M  V30 1 2 1 2
M  V30 2 1 2 3
M  V30 3 1 2 4
M  V30 4 1 3 5
M  V30 5 2 4 6
M  V30 6 1 4 7
M  V30 7 1 5 8
M  V30 8 1 6 9
M  V30 9 1 6 10
M  V30 10 2 7 11
M  V30 11 1 8 12
M  V30 12 2 9 13
M  V30 13 1 9 14
M  V30 14 2 10 15
M  V30 15 1 12 16
M  V30 16 1 14 17
M  V30 17 1 16 18
M  V30 18 1 17 19
M  V30 19 1 18 20
M  V30 20 1 19 21
M  V30 21 1 20 22
M  V30 22 1 21 23
M  V30 23 1 22 24
M  V30 24 1 23 25
M  V30 25 1 24 26
M  V30 26 1 25 27
M  V30 27 1 26 28
M  V30 28 1 27 29
M  V30 29 1 28 30
M  V30 30 1 29 31
M  V30 31 1 30 32
M  V30 32 1 31 33
M  V30 33 1 33 34
M  V30 34 1 34 35
M  V30 35 1 35 36
M  V30 36 1 11 15
M  V30 END BOND
M  V30 END CTAB
M  END
>  <Molecule Name>
Phthalic acid, dilauryl ester

>  <Activity Label>
0

>  <SMILES>
CCCCCCCCCCCCOC(c(cccc1)c1C(OCCCCCCCCCCCC)=O)=O

>  <Molecular Formula>
C32H54O4

>  <InChIKey>
PUFGCEQWYLJYNJ-UHFFFAOYSA-N

>  <Repellency>
Inactive

>  <Reference DOI>
10.3390/toxics11100837

>  <Target Organism>
Not applied

$$$$
Compound 1209
Actelion Java MolfileCreator 2.0

  0  0  0  0  0  0              0 V3000
M  V30 BEGIN CTAB
M  V30 COUNTS 36 35 0 0 0
M  V30 BEGIN ATOM
M  V30 1 O 0.0 0.0 0.0 0
M  V30 2 C 0.7448 -1.3004 0.0 0
M  V30 3 O -0.0118 -2.6008 0.0 0
M  V30 4 C 2.2462 -1.3004 0.0 0
M  V30 5 C 2.991 0.0 0.0 0
M  V30 6 C 2.991 -2.6008 0.0 0
M  V30 7 C 2.2462 1.3004 0.0 0
M  V30 8 C 4.4924 0.0 0.0 0
M  V30 9 C 4.4924 -2.6008 0.0 0
M  V30 10 O 2.991 2.6008 0.0 0
M  V30 11 O 0.7448 1.3004 0.0 0
M  V30 12 C 5.249 -1.3004 0.0 0
M  V30 13 O 4.918 -7.5662 0.0 0
M  V30 14 C 4.1732 -6.2657 0.0 0
M  V30 15 O 4.9298 -4.9653 0.0 0
M  V30 16 C 2.6718 -6.2657 0.0 0
M  V30 17 C 1.927 -7.5662 0.0 0
M  V30 18 C 1.927 -4.9653 0.0 0
M  V30 19 C 2.6718 -8.8666 0.0 0
M  V30 20 C 0.4256 -7.5662 0.0 0
M  V30 21 C 0.4256 -4.9653 0.0 0
M  V30 22 O 1.927 -10.1671 0.0 0
M  V30 23 O 4.1732 -8.8666 0.0 0
M  V30 24 C -0.3192 -6.2657 0.0 0
M  V30 25 O 7.6608 -2.8373 0.0 0
M  V30 26 C 9.1386 -3.0974 0.0 0
M  V30 27 C 9.6469 -4.5042 0.0 0
M  V30 28 C 10.108 -1.9506 0.0 0
M  V30 29 O 11.1247 -4.7643 0.0 0
M  V30 30 C 8.6775 -5.651 0.0 0
M  V30 31 C 9.5996 -0.5438 0.0 0
M  V30 32 C 9.1858 -7.0578 0.0 0
M  V30 33 C 10.5691 0.6029 0.0 0
M  V30 34 C 8.2164 -8.2046 0.0 0
M  V30 35 C 10.0607 2.0097 0.0 0
M  V30 36 C 8.7248 -9.6114 0.0 0
M  V30 END ATOM
M  V30 BEGIN BOND
M  V30 1 2 1 2
M  V30 2 1 2 3
M  V30 3 1 2 4
M  V30 4 2 4 5
M  V30 5 1 4 6
M  V30 6 1 5 7
M  V30 7 1 5 8
M  V30 8 2 6 9
M  V30 9 2 7 10
M  V30 10 1 7 11
M  V30 11 2 8 12
M  V30 12 2 13 14
M  V30 13 1 14 15
M  V30 14 1 14 16
M  V30 15 2 16 17
M  V30 16 1 16 18
M  V30 17 1 17 19
M  V30 18 1 17 20
M  V30 19 2 18 21
M  V30 20 2 19 22
M  V30 21 1 19 23
M  V30 22 2 20 24
M  V30 23 1 25 26
M  V30 24 1 26 27
M  V30 25 1 26 28
M  V30 26 1 27 29
M  V30 27 1 27 30
M  V30 28 1 28 31
M  V30 29 1 30 32
M  V30 30 1 31 33
M  V30 31 1 32 34
M  V30 32 1 33 35
M  V30 33 1 34 36
M  V30 34 1 9 12
M  V30 35 1 21 24
M  V30 END BOND
M  V30 END CTAB
M  END
>  <Molecule Name>
Dibutyl ethylene glycol diphthalate

>  <Activity Label>
0

>  <SMILES>
CCCCC(C(CCCC)O)O.OC(c(cccc1)c1C(O)=O)=O.OC(c(cccc1)c1C(O)=O)=O

>  <Molecular Formula>
C8H6O4.C8H6O4.C10H22O2

>  <InChIKey>
SJCHCOKLXPENOO-UHFFFAOYSA-N

>  <Repellency>
Inactive

>  <Reference DOI>
10.3390/toxics11100837

>  <Target Organism>
Not applied

$$$$
Compound 1210
Actelion Java MolfileCreator 2.0

  0  0  0  0  0  0              0 V3000
M  V30 BEGIN CTAB
M  V30 COUNTS 45 44 0 0 0
M  V30 BEGIN ATOM
M  V30 1 O 0.0 0.0 0.0 0
M  V30 2 C 0.0 -1.5018 0.0 0
M  V30 3 O -1.3007 -2.2468 0.0 0
M  V30 4 C 1.3007 -2.2468 0.0 0 CFG=1
M  V30 5 C -2.6015 -1.5018 0.0 0
M  V30 6 O 1.3007 -3.7486 0.0 0
M  V30 7 C 2.6015 -1.5018 0.0 0
M  V30 8 C -3.9023 -2.2468 0.0 0
M  V30 9 C 3.9023 -2.2468 0.0 0
M  V30 10 C -5.2031 -1.5018 0.0 0
M  V30 11 O 3.9023 -3.7486 0.0 0
M  V30 12 O 5.2031 -1.5018 0.0 0
M  V30 13 C -6.5039 -2.2468 0.0 0
M  V30 14 C 6.5039 -2.2468 0.0 0
M  V30 15 C -7.8047 -1.5018 0.0 0
M  V30 16 C 7.8047 -1.5018 0.0 0
M  V30 17 C -9.1055 -2.2468 0.0 0
M  V30 18 C 9.1055 -2.2468 0.0 0
M  V30 19 C -10.4063 -1.5018 0.0 0
M  V30 20 C 10.4063 -1.5018 0.0 0
M  V30 21 C -11.7071 -2.2468 0.0 0
M  V30 22 C 11.7071 -2.2468 0.0 0
M  V30 23 C -13.0079 -1.5018 0.0 0
M  V30 24 C 13.0079 -1.5018 0.0 0
M  V30 25 C -14.3087 -2.2468 0.0 0
M  V30 26 C 14.3087 -2.2468 0.0 0
M  V30 27 C -14.3087 -3.7486 0.0 0
M  V30 28 C 15.6095 -1.5018 0.0 0
M  V30 29 C -15.6095 -4.4936 0.0 0
M  V30 30 C 16.9103 -2.2468 0.0 0
M  V30 31 C -15.6095 -5.9954 0.0 0
M  V30 32 C 18.2111 -1.5018 0.0 0
M  V30 33 C -16.9103 -6.7404 0.0 0
M  V30 34 C 18.2111 0.0 0.0 0
M  V30 35 C -16.9103 -8.2423 0.0 0
M  V30 36 C 19.5119 0.745 0.0 0
M  V30 37 C -18.2111 -8.9873 0.0 0
M  V30 38 C 19.5119 2.2468 0.0 0
M  V30 39 C -18.2111 -10.4891 0.0 0
M  V30 40 C 20.8127 3.0036 0.0 0
M  V30 41 C -19.5119 -11.2341 0.0 0
M  V30 42 C 20.8127 4.5054 0.0 0
M  V30 43 C 22.1135 5.2504 0.0 0
M  V30 44 C 22.1135 6.7523 0.0 0
M  V30 45 C 23.4143 7.5091 0.0 0
M  V30 END ATOM
M  V30 BEGIN BOND
M  V30 1 2 1 2
M  V30 2 1 2 3
M  V30 3 1 2 4
M  V30 4 1 3 5
M  V30 5 1 4 6 CFG=3
M  V30 6 1 4 7
M  V30 7 1 5 8
M  V30 8 1 7 9
M  V30 9 1 8 10
M  V30 10 2 9 11
M  V30 11 1 9 12
M  V30 12 1 10 13
M  V30 13 1 12 14
M  V30 14 1 13 15
M  V30 15 1 14 16
M  V30 16 1 15 17
M  V30 17 1 16 18
M  V30 18 1 17 19
M  V30 19 1 18 20
M  V30 20 1 19 21
M  V30 21 1 20 22
M  V30 22 1 21 23
M  V30 23 1 22 24
M  V30 24 2 23 25
M  V30 25 1 24 26
M  V30 26 1 25 27
M  V30 27 1 26 28
M  V30 28 1 27 29
M  V30 29 1 28 30
M  V30 30 1 29 31
M  V30 31 2 30 32
M  V30 32 1 31 33
M  V30 33 1 32 34
M  V30 34 1 33 35
M  V30 35 1 34 36
M  V30 36 1 35 37
M  V30 37 1 36 38
M  V30 38 1 37 39
M  V30 39 1 38 40
M  V30 40 1 39 41
M  V30 41 1 40 42
M  V30 42 1 42 43
M  V30 43 1 43 44
M  V30 44 1 44 45
M  V30 END BOND
M  V30 BEGIN COLLECTION
M  V30 MDLV30/STERAC1 ATOMS=(1 4)
M  V30 END COLLECTION
M  V30 END CTAB
M  END
>  <Molecule Name>
Malic acid, dioleyl ester

>  <Activity Label>
0

>  <SMILES>
CCCCCCCC/C=C\CCCCCCCCOC(CC(C(OCCCCCCCC/C=C\CCCCCCCC)=O)O)=O

>  <Molecular Formula>
C40H74O5

>  <InChIKey>
MBPUYGZEDYDAHA-CLFAGFIQSA-N

>  <Repellency>
Inactive

>  <Reference DOI>
10.3390/toxics11100837

>  <Target Organism>
Not applied

$$$$
