linalool
Actelion Java MolfileCreator 2.0

  0  0  0  0  0  0              0 V3000
M  V30 BEGIN CTAB
M  V30 COUNTS 11 10 0 0 0
M  V30 BEGIN ATOM
M  V30 1 O 0.0 0.0 0.0 0
M  V30 2 C -1.3412 0.8139 0.0 0 CFG=2
M  V30 3 C -2.1437 -0.4356 0.0 0
M  V30 4 C -0.6534 2.1552 0.0 0
M  V30 5 C -2.6825 1.6164 0.0 0
M  V30 6 C -1.4559 -1.6851 0.0 0
M  V30 7 C -1.4559 3.4964 0.0 0
M  V30 8 C -0.768 4.8377 0.0 0
M  V30 9 C 0.6763 4.8836 0.0 0
M  V30 10 C 1.3642 6.2249 0.0 0
M  V30 11 C 1.3642 3.634 0.0 0
M  V30 END ATOM
M  V30 BEGIN BOND
M  V30 1 1 1 2
M  V30 2 1 2 3
M  V30 3 1 2 4
M  V30 4 1 2 5 CFG=1
M  V30 5 2 3 6
M  V30 6 1 4 7
M  V30 7 1 7 8
M  V30 8 2 8 9
M  V30 9 1 9 10
M  V30 10 1 9 11
M  V30 END BOND
M  V30 BEGIN COLLECTION
M  V30 MDLV30/STERAC1 ATOMS=(1 2)
M  V30 END COLLECTION
M  V30 END CTAB
M  END
>  <Molecule Name>
linalool

>  <Molecule Name 2>
linalool

>  <Database>
Essential Oil Database

>  <InChI>
InChI=1S/C10H18O/c1-5-10(4,11)8-6-7-9(2)3/h5,7,11H,1,6,8H2,2-4H3/t10-/m1/s1

>  <InChI-Key>
CDOSHBSSFJOMGT-SNVBAGLBSA-N

>  <Smiles>
CC(CCC=C(C)C)(C=C)O

>  <Molecular Formula>
C10H18O

$$$$
(z)-para-menth-2-en-1-ol
Actelion Java MolfileCreator 2.0

  0  0  0  0  0  0              0 V3000
M  V30 BEGIN CTAB
M  V30 COUNTS 11 11 0 0 0
M  V30 BEGIN ATOM
M  V30 1 O 0.0 0.0 0.0 0
M  V30 2 C -1.0394 -1.1211 0.0 0
M  V30 3 C -2.4058 -1.8102 0.0 0
M  V30 4 C 0.2335 -1.8102 0.0 0
M  V30 5 C -2.0788 0.0934 0.0 0
M  V30 6 C -2.4525 -3.2817 0.0 0
M  V30 7 C 0.1868 -3.2817 0.0 0
M  V30 8 C -1.1795 -3.9708 0.0 0
M  V30 9 C -1.2262 -5.4424 0.0 0
M  V30 10 C 0.0467 -6.1548 0.0 0
M  V30 11 C -2.5927 -6.1548 0.0 0
M  V30 END ATOM
M  V30 BEGIN BOND
M  V30 1 1 1 2
M  V30 2 1 2 3
M  V30 3 1 2 4
M  V30 4 1 2 5
M  V30 5 2 3 6
M  V30 6 1 4 7
M  V30 7 1 6 8
M  V30 8 1 8 9
M  V30 9 1 9 10
M  V30 10 1 9 11
M  V30 11 1 7 8
M  V30 END BOND
M  V30 END CTAB
M  END
>  <Molecule Name>
(z)-para-menth-2-en-1-ol

>  <Molecule Name 2>
(z)-para-menth-2-en-1-ol

>  <Database>
Essential Oil Database

>  <InChI>
InChI=1S/C10H18O/c1-8(2)9-4-6-10(3,11)7-5-9/h4,6,8-9,11H,5,7H2,1-3H3

>  <InChI-Key>
IZXYHAXVIZHGJV-UHFFFAOYSA-N

>  <Smiles>
CC(C)C(CC1)C=CC1(C)O

>  <Molecular Formula>
C10H18O

$$$$
alpha-humulene
Actelion Java MolfileCreator 2.0

  0  0  0  0  0  0              0 V3000
M  V30 BEGIN CTAB
M  V30 COUNTS 15 15 0 0 0
M  V30 BEGIN ATOM
M  V30 1 C 0.0 0.0 0.0 0
M  V30 2 C -1.4589 0.3956 0.0 0
M  V30 3 C 0.9396 1.088 0.0 0
M  V30 4 C 0.3709 -1.3476 0.0 0
M  V30 5 C -2.4974 -0.5934 0.0 0
M  V30 6 C 0.4698 2.5345 0.0 0
M  V30 7 C -3.9564 -0.1978 0.0 0
M  V30 8 C -1.1127 3.0414 0.0 0
M  V30 9 C -4.4262 1.2487 0.0 0
M  V30 10 C -1.9658 4.2902 0.0 0
M  V30 11 C -3.4371 2.4974 0.0 0
M  V30 12 C -5.8975 1.6196 0.0 0
M  V30 13 C -3.4124 3.9193 0.0 0
M  V30 14 C -2.584 5.6873 0.0 0
M  V30 15 C -0.7418 5.0444 0.0 0
M  V30 END ATOM
M  V30 BEGIN BOND
M  V30 1 2 1 2
M  V30 2 1 1 3
M  V30 3 1 1 4
M  V30 4 1 2 5
M  V30 5 1 3 6
M  V30 6 1 5 7
M  V30 7 2 6 8
M  V30 8 1 7 9
M  V30 9 1 8 10
M  V30 10 2 9 11
M  V30 11 1 9 12
M  V30 12 1 10 13
M  V30 13 1 10 14
M  V30 14 1 10 15
M  V30 15 1 11 13
M  V30 END BOND
M  V30 END CTAB
M  END
>  <Molecule Name>
alpha-humulene

>  <Molecule Name 2>
alpha-humulene

>  <Database>
Essential Oil Database

>  <InChI>
InChI=1S/C15H24/c1-13-7-5-8-14(2)10-12-15(3,4)11-6-9-13/h6-7,10-11H,5,8-9,12H2,1-4H3/b11-6+,13-7+,14-10+

>  <InChI-Key>
FAMPSKZZVDUYOS-HRGUGZIWSA-N

>  <Smiles>
CC1(C)/C=C/C/C(\C)=C/CC/C(\C)=C/C1

>  <Molecular Formula>
C15H24

$$$$
beta-sesquiphellandrene
Actelion Java MolfileCreator 2.0

  0  0  0  0  0  0              0 V3000
M  V30 BEGIN CTAB
M  V30 COUNTS 15 15 0 0 0
M  V30 BEGIN ATOM
M  V30 1 C 0.0 0.0 0.0 0
M  V30 2 C -1.323 0.7628 0.0 0
M  V30 3 C -0.0476 -1.4303 0.0 0
M  V30 4 C 1.2277 0.7628 0.0 0
M  V30 5 C -1.3707 2.2886 0.0 0
M  V30 6 C 1.18 2.2886 0.0 0
M  V30 7 C -0.143 3.0514 0.0 0 CFG=2
M  V30 8 C -0.1907 4.5772 0.0 0 CFG=2
M  V30 9 C -1.5138 5.34 0.0 0
M  V30 10 C 1.037 5.34 0.0 0
M  V30 11 C -1.5614 6.8658 0.0 0
M  V30 12 C -2.8845 7.6405 0.0 0
M  V30 13 C -2.9322 9.1663 0.0 0
M  V30 14 C -4.2553 9.9411 0.0 0
M  V30 15 C -1.7045 9.9411 0.0 0
M  V30 END ATOM
M  V30 BEGIN BOND
M  V30 1 1 1 2
M  V30 2 2 1 3
M  V30 3 1 1 4
M  V30 4 2 2 5
M  V30 5 1 4 6
M  V30 6 1 7 5 CFG=1
M  V30 7 1 7 8
M  V30 8 1 8 9
M  V30 9 1 8 10 CFG=3
M  V30 10 1 9 11
M  V30 11 1 11 12
M  V30 12 2 12 13
M  V30 13 1 13 14
M  V30 14 1 13 15
M  V30 15 1 6 7
M  V30 END BOND
M  V30 BEGIN COLLECTION
M  V30 MDLV30/STEABS ATOMS=(2 7 8)
M  V30 END COLLECTION
M  V30 END CTAB
M  END
>  <Molecule Name>
beta-sesquiphellandrene

>  <Molecule Name 2>
beta-sesquiphellandrene

>  <Database>
Essential Oil Database

>  <InChI>
InChI=1S/C15H24/c1-12(2)6-5-7-14(4)15-10-8-13(3)9-11-15/h6,8,10,14-15H,3,5,7,9,11H2,1-2,4H3/t14-,15+/m0/s1

>  <InChI-Key>
PHWISBHSBNDZDX-LSDHHAIUSA-N

>  <Smiles>
C[C@@H](CCC=C(C)C)[C@@H](CC1)C=CC1=C

>  <Molecular Formula>
C15H24

$$$$
delta-amorphene
Actelion Java MolfileCreator 2.0

  0  0  0  0  0  0              0 V3000
M  V30 BEGIN CTAB
M  V30 COUNTS 15 16 0 0 0
M  V30 BEGIN ATOM
M  V30 1 C 0.0 0.0 0.0 0
M  V30 2 C -1.3574 0.7826 0.0 0
M  V30 3 C -0.0489 -1.4675 0.0 0 CFG=1
M  V30 4 C 1.2596 0.7826 0.0 0
M  V30 5 C -2.7148 0.0611 0.0 0
M  V30 6 C -1.4063 2.348 0.0 0
M  V30 7 C 1.2106 -2.2012 0.0 0
M  V30 8 C -1.4063 -2.2012 0.0 0 CFG=1
M  V30 9 C 2.5192 0.0611 0.0 0
M  V30 10 C -2.7637 -1.4063 0.0 0
M  V30 11 C 2.4702 -1.4063 0.0 0
M  V30 12 C -1.4552 -3.6687 0.0 0
M  V30 13 C 3.7299 -2.1401 0.0 0
M  V30 14 C -0.1956 -4.4025 0.0 0
M  V30 15 C -2.8127 -4.4025 0.0 0
M  V30 END ATOM
M  V30 BEGIN BOND
M  V30 1 2 1 2
M  V30 2 1 1 3
M  V30 3 1 1 4
M  V30 4 1 2 5
M  V30 5 1 2 6
M  V30 6 1 3 7 CFG=1
M  V30 7 1 3 8
M  V30 8 1 4 9
M  V30 9 1 5 10
M  V30 10 2 7 11
M  V30 11 1 8 12 CFG=3
M  V30 12 1 11 13
M  V30 13 1 12 14
M  V30 14 1 12 15
M  V30 15 1 8 10
M  V30 16 1 9 11
M  V30 END BOND
M  V30 BEGIN COLLECTION
M  V30 MDLV30/STEABS ATOMS=(2 3 8)
M  V30 END COLLECTION
M  V30 END CTAB
M  END
>  <Molecule Name>
delta-amorphene

>  <Molecule Name 2>
delta-amorphene

>  <Database>
Essential Oil Database

>  <InChI>
InChI=1S/C15H24/c1-10(2)13-8-6-12(4)14-7-5-11(3)9-15(13)14/h9-10,13,15H,5-8H2,1-4H3/t13-,15-/m0/s1

>  <InChI-Key>
FUCYIEXQVQJBKY-ZFWWWQNUSA-N

>  <Smiles>
CC(C)[C@H]1[C@H](C=C(C)CC2)C2=C(C)CC1

>  <Molecular Formula>
C15H24

$$$$
caryophyllene oxide
Actelion Java MolfileCreator 2.0

  0  0  0  0  0  0              0 V3000
M  V30 BEGIN CTAB
M  V30 COUNTS 16 18 0 0 0
M  V30 BEGIN ATOM
M  V30 1 O 0.0 0.0 0.0 0
M  V30 2 C 1.3956 0.5681 0.0 0
M  V30 3 C 1.0992 -0.9386 0.0 0
M  V30 4 C 2.5195 1.5809 0.0 0
M  V30 5 C 0.5928 1.9514 0.0 0
M  V30 6 C 1.8155 -2.2231 0.0 0
M  V30 7 C 4.0016 1.6179 0.0 0
M  V30 8 C 3.1988 -2.7295 0.0 0
M  V30 9 C 5.1009 0.6792 0.0 0
M  V30 10 C 4.5945 -2.1614 0.0 0
M  V30 11 C 6.5583 0.988 0.0 0
M  V30 12 C 5.3108 -0.7781 0.0 0
M  V30 13 C 5.5084 -3.2853 0.0 0
M  V30 14 C 6.7682 -0.4693 0.0 0
M  V30 15 C 7.9168 1.6426 0.0 0
M  V30 16 C 6.62 2.5689 0.0 0
M  V30 END ATOM
M  V30 BEGIN BOND
M  V30 1 1 1 2
M  V30 2 1 1 3
M  V30 3 1 2 4
M  V30 4 1 2 5
M  V30 5 1 3 6
M  V30 6 1 4 7
M  V30 7 1 6 8
M  V30 8 1 7 9
M  V30 9 1 8 10
M  V30 10 1 9 11
M  V30 11 1 9 12
M  V30 12 2 10 13
M  V30 13 1 11 14
M  V30 14 1 11 15
M  V30 15 1 11 16
M  V30 16 1 2 3
M  V30 17 1 10 12
M  V30 18 1 12 14
M  V30 END BOND
M  V30 END CTAB
M  END
>  <Molecule Name>
caryophyllene oxide

>  <Molecule Name 2>
caryophyllene oxide

>  <Database>
Essential Oil Database

>  <InChI>
InChI=1S/C15H24O/c1-10-5-6-13-15(4,16-13)8-7-12-11(10)9-14(12,2)3/h11-13H,1,5-9H2,2-4H3

>  <InChI-Key>
NVEQFIOZRFFVFW-UHFFFAOYSA-N

>  <Smiles>
CC1(CCC2C(C)(C)CC22)OC1CCC2=C

>  <Molecular Formula>
C15H24O

$$$$
alpha-thujene
Actelion Java MolfileCreator 2.0

  0  0  0  0  0  0              0 V3000
M  V30 BEGIN CTAB
M  V30 COUNTS 10 11 0 0 0
M  V30 BEGIN ATOM
M  V30 1 C 0.0 0.0 0.0 0
M  V30 2 C 0.8331 -1.1712 0.0 0
M  V30 3 C -1.4851 -0.4226 0.0 0
M  V30 4 C 0.4226 1.4851 0.0 0
M  V30 5 C -0.0965 -2.3424 0.0 0
M  V30 6 C -1.5334 -1.8836 0.0 0
M  V30 7 C -2.8375 -1.147 0.0 0
M  V30 8 C -2.2096 -3.2118 0.0 0
M  V30 9 C -3.7551 -3.3204 0.0 0
M  V30 10 C -1.3764 -4.383 0.0 0
M  V30 END ATOM
M  V30 BEGIN BOND
M  V30 1 2 1 2
M  V30 2 1 1 3
M  V30 3 1 1 4
M  V30 4 1 2 5
M  V30 5 1 3 6
M  V30 6 1 3 7
M  V30 7 1 6 8
M  V30 8 1 8 9
M  V30 9 1 8 10
M  V30 10 1 5 6
M  V30 11 1 6 7
M  V30 END BOND
M  V30 END CTAB
M  END
>  <Molecule Name>
alpha-thujene

>  <Molecule Name 2>
alpha-thujene

>  <Database>
Essential Oil Database

>  <InChI>
InChI=1S/C10H16/c1-7(2)10-5-4-8(3)9(10)6-10/h4,7,9H,5-6H2,1-3H3

>  <InChI-Key>
KQAZVFVOEIRWHN-UHFFFAOYSA-N

>  <Smiles>
CC(C)C1(C2)C2C(C)=CC1

>  <Molecular Formula>
C10H16

$$$$
m-cresol
Actelion Java MolfileCreator 2.0

  0  0  0  0  0  0              0 V3000
M  V30 BEGIN CTAB
M  V30 COUNTS 8 8 0 0 0
M  V30 BEGIN ATOM
M  V30 1 O 0.0 0.0 0.0 0
M  V30 2 C -0.0473 -1.4904 0.0 0
M  V30 3 C 1.242 -2.2002 0.0 0
M  V30 4 C -1.4313 -2.2002 0.0 0
M  V30 5 C 1.1947 -3.6907 0.0 0
M  V30 6 C -1.4786 -3.6907 0.0 0
M  V30 7 C -0.1892 -4.4004 0.0 0
M  V30 8 C 2.4841 -4.4004 0.0 0
M  V30 END ATOM
M  V30 BEGIN BOND
M  V30 1 1 1 2
M  V30 2 2 2 3
M  V30 3 1 2 4
M  V30 4 1 3 5
M  V30 5 2 4 6
M  V30 6 2 5 7
M  V30 7 1 5 8
M  V30 8 1 6 7
M  V30 END BOND
M  V30 END CTAB
M  END
>  <Molecule Name>
m-cresol

>  <Molecule Name 2>
m-cresol

>  <Database>
Essential Oil Database

>  <InChI>
InChI=1S/C7H8O/c1-6-3-2-4-7(8)5-6/h2-5,8H,1H3

>  <InChI-Key>
RLSSMJSEOOYNOY-UHFFFAOYSA-N

>  <Smiles>
Cc1cccc(O)c1

>  <Molecular Formula>
C7H8O

$$$$
carvacrol methyl ether
Actelion Java MolfileCreator 2.0

  0  0  0  0  0  0              0 V3000
M  V30 BEGIN CTAB
M  V30 COUNTS 12 12 0 0 0
M  V30 BEGIN ATOM
M  V30 1 O 0.0 0.0 0.0 0
M  V30 2 C 1.2484 0.7757 0.0 0
M  V30 3 C -1.3453 0.7757 0.0 0
M  V30 4 C 2.4968 0.0606 0.0 0
M  V30 5 C 1.1999 2.3271 0.0 0
M  V30 6 C 3.7452 0.8484 0.0 0
M  V30 7 C 2.4483 -1.3938 0.0 0
M  V30 8 C 2.4483 3.115 0.0 0
M  V30 9 C 3.6968 2.3998 0.0 0
M  V30 10 C 2.3998 4.6664 0.0 0
M  V30 11 C 1.0544 5.4543 0.0 0
M  V30 12 C 3.6483 5.4543 0.0 0
M  V30 END ATOM
M  V30 BEGIN BOND
M  V30 1 1 1 2
M  V30 2 1 1 3
M  V30 3 2 2 4
M  V30 4 1 2 5
M  V30 5 1 4 6
M  V30 6 1 4 7
M  V30 7 2 5 8
M  V30 8 2 6 9
M  V30 9 1 8 10
M  V30 10 1 10 11
M  V30 11 1 10 12
M  V30 12 1 8 9
M  V30 END BOND
M  V30 END CTAB
M  END
>  <Molecule Name>
carvacrol methyl ether

>  <Molecule Name 2>
carvacrol methyl ether

>  <Database>
Essential Oil Database

>  <InChI>
InChI=1S/C11H16O/c1-8(2)10-6-5-9(3)11(7-10)12-4/h5-8H,1-4H3

>  <InChI-Key>
YVLHTQPPMZOCOW-UHFFFAOYSA-N

>  <Smiles>
CC(C)c1cc(OC)c(C)cc1

>  <Molecular Formula>
C11H16O

$$$$
lavandulyl acetate
Actelion Java MolfileCreator 2.0

  0  0  0  0  0  0              0 V3000
M  V30 BEGIN CTAB
M  V30 COUNTS 14 13 0 0 0
M  V30 BEGIN ATOM
M  V30 1 O 0.0 0.0 0.0 0
M  V30 2 C 0.6898 -1.2745 0.0 0
M  V30 3 O 2.1632 -1.2277 0.0 0
M  V30 4 C -0.1286 -2.549 0.0 0
M  V30 5 C 2.853 0.1403 0.0 0
M  V30 6 C 4.3264 0.187 0.0 0 CFG=1
M  V30 7 C 5.0279 -1.0874 0.0 0
M  V30 8 C 5.0279 1.5551 0.0 0
M  V30 9 C 4.2094 -2.3619 0.0 0
M  V30 10 C 6.5013 -1.0406 0.0 0
M  V30 11 C 6.5013 1.6019 0.0 0
M  V30 12 C 7.1911 2.97 0.0 0
M  V30 13 C 8.6645 3.0167 0.0 0
M  V30 14 C 6.3726 4.3381 0.0 0
M  V30 END ATOM
M  V30 BEGIN BOND
M  V30 1 2 1 2
M  V30 2 1 2 3
M  V30 3 1 2 4
M  V30 4 1 3 5
M  V30 5 1 6 5 CFG=3
M  V30 6 1 6 7
M  V30 7 1 6 8
M  V30 8 2 7 9
M  V30 9 1 7 10
M  V30 10 1 8 11
M  V30 11 2 11 12
M  V30 12 1 12 13
M  V30 13 1 12 14
M  V30 END BOND
M  V30 BEGIN COLLECTION
M  V30 MDLV30/STERAC1 ATOMS=(1 6)
M  V30 END COLLECTION
M  V30 END CTAB
M  END
>  <Molecule Name>
lavandulyl acetate

>  <Molecule Name 2>
lavandulyl acetate

>  <Database>
Essential Oil Database

>  <InChI>
InChI=1S/C12H20O2/c1-9(2)6-7-12(10(3)4)8-14-11(5)13/h6,12H,3,7-8H2,1-2,4-5H3/t12-/m0/s1

>  <InChI-Key>
HYNGAVZPWWXQIU-LBPRGKRZSA-N

>  <Smiles>
CC(C)=CCC(COC(C)=O)C(C)=C

>  <Molecular Formula>
C12H20O2

$$$$
methyl eugenol
Actelion Java MolfileCreator 2.0

  0  0  0  0  0  0              0 V3000
M  V30 BEGIN CTAB
M  V30 COUNTS 13 13 0 0 0
M  V30 BEGIN ATOM
M  V30 1 O 0.0 0.0 0.0 0
M  V30 2 C -0.0468 -1.4745 0.0 0
M  V30 3 C -1.3692 0.8191 0.0 0
M  V30 4 C -1.416 -2.1649 0.0 0
M  V30 5 C 1.2287 -2.1649 0.0 0
M  V30 6 O -2.7852 -1.3458 0.0 0
M  V30 7 C -1.4628 -3.6395 0.0 0
M  V30 8 C 1.1819 -3.6395 0.0 0
M  V30 9 C -4.1544 -2.0362 0.0 0
M  V30 10 C -0.1872 -4.3299 0.0 0
M  V30 11 C 2.4575 -4.3299 0.0 0
M  V30 12 C 2.4107 -5.8045 0.0 0
M  V30 13 C 3.6863 -6.5066 0.0 0
M  V30 END ATOM
M  V30 BEGIN BOND
M  V30 1 1 1 2
M  V30 2 1 1 3
M  V30 3 2 2 4
M  V30 4 1 2 5
M  V30 5 1 4 6
M  V30 6 1 4 7
M  V30 7 2 5 8
M  V30 8 1 6 9
M  V30 9 2 7 10
M  V30 10 1 8 11
M  V30 11 1 11 12
M  V30 12 2 12 13
M  V30 13 1 8 10
M  V30 END BOND
M  V30 END CTAB
M  END
>  <Molecule Name>
methyl eugenol

>  <Molecule Name 2>
methyl eugenol

>  <Database>
Essential Oil Database

>  <InChI>
InChI=1S/C11H14O2/c1-4-5-9-6-7-10(12-2)11(8-9)13-3/h4,6-8H,1,5H2,2-3H3

>  <InChI-Key>
ZYEMGPIYFIJGTP-UHFFFAOYSA-N

>  <Smiles>
COc(ccc(CC=C)c1)c1OC

>  <Molecular Formula>
C11H14O2

$$$$
terpinolene
Actelion Java MolfileCreator 2.0

  0  0  0  0  0  0              0 V3000
M  V30 BEGIN CTAB
M  V30 COUNTS 10 10 0 0 0
M  V30 BEGIN ATOM
M  V30 1 C 0.0 0.0 0.0 0
M  V30 2 C -0.0488 1.5641 0.0 0
M  V30 3 C -1.3564 -0.7209 0.0 0
M  V30 4 C 1.2586 -0.7209 0.0 0
M  V30 5 C 1.2097 2.3584 0.0 0
M  V30 6 C -1.4052 2.3584 0.0 0
M  V30 7 C -1.4052 -2.1873 0.0 0
M  V30 8 C 1.2097 -2.1873 0.0 0
M  V30 9 C -0.1466 -2.9083 0.0 0
M  V30 10 C -0.1955 -4.3747 0.0 0
M  V30 END ATOM
M  V30 BEGIN BOND
M  V30 1 2 1 2
M  V30 2 1 1 3
M  V30 3 1 1 4
M  V30 4 1 2 5
M  V30 5 1 2 6
M  V30 6 1 3 7
M  V30 7 1 4 8
M  V30 8 2 7 9
M  V30 9 1 9 10
M  V30 10 1 8 9
M  V30 END BOND
M  V30 END CTAB
M  END
>  <Molecule Name>
terpinolene

>  <Molecule Name 2>
terpinolene

>  <Database>
Essential Oil Database

>  <InChI>
InChI=1S/C10H16/c1-8(2)10-6-4-9(3)5-7-10/h4H,5-7H2,1-3H3

>  <InChI-Key>
MOYAFQVGZZPNRA-UHFFFAOYSA-N

>  <Smiles>
CC(C)=C1CC=C(C)CC1

>  <Molecular Formula>
C10H16

$$$$
bornyl acetate
Actelion Java MolfileCreator 2.0

  0  0  0  0  0  0              0 V3000
M  V30 BEGIN CTAB
M  V30 COUNTS 14 15 0 0 0
M  V30 BEGIN ATOM
M  V30 1 O 0.0 0.0 0.0 0
M  V30 2 C -1.1271 -0.9183 0.0 0
M  V30 3 O -0.8348 -2.3516 0.0 0
M  V30 4 C -2.5881 -0.4174 0.0 0
M  V30 5 C 0.2643 -3.3535 0.0 0
M  V30 6 C 1.2801 -2.5186 0.0 0
M  V30 7 C 0.1808 -4.7589 0.0 0
M  V30 8 C 0.807 -3.924 0.0 0
M  V30 9 C 2.4768 -3.2421 0.0 0
M  V30 10 C 1.4193 -0.9462 0.0 0
M  V30 11 C 1.1688 -5.4268 0.0 0
M  V30 12 C -0.974 -3.27 0.0 0
M  V30 13 C -0.8905 -4.7171 0.0 0
M  V30 14 C 2.3933 -4.6476 0.0 0
M  V30 END ATOM
M  V30 BEGIN BOND
M  V30 1 2 1 2
M  V30 2 1 2 3
M  V30 3 1 2 4
M  V30 4 1 3 5
M  V30 5 1 5 6
M  V30 6 1 5 7
M  V30 7 1 6 8
M  V30 8 1 6 9
M  V30 9 1 6 10
M  V30 10 1 7 11
M  V30 11 1 8 12
M  V30 12 1 8 13
M  V30 13 1 9 14
M  V30 14 1 8 11
M  V30 15 1 11 14
M  V30 END BOND
M  V30 END CTAB
M  END
>  <Molecule Name>
bornyl acetate

>  <Molecule Name 2>
bornyl acetate

>  <Database>
Essential Oil Database

>  <InChI>
InChI=1S/C12H20O2/c1-8(13)14-10-7-9-5-6-12(10,4)11(9,2)3/h9-10H,5-7H2,1-4H3

>  <InChI-Key>
KGEKLUUHTZCSIP-UHFFFAOYSA-N

>  <Smiles>
CC(C)(C(CC1)C2)C1(C)C2OC(C)=O

>  <Molecular Formula>
C12H20O2

$$$$
(z)-beta-farnesene
Actelion Java MolfileCreator 2.0

  0  0  0  0  0  0              0 V3000
M  V30 BEGIN CTAB
M  V30 COUNTS 15 14 0 0 0
M  V30 BEGIN ATOM
M  V30 1 C 0.0 0.0 0.0 0
M  V30 2 C 1.4611 0.0487 0.0 0
M  V30 3 C -0.7792 -1.2541 0.0 0
M  V30 4 C -0.7792 1.3515 0.0 0
M  V30 5 C 2.1917 -1.2054 0.0 0
M  V30 6 C -2.3378 -1.2054 0.0 0
M  V30 7 C 3.6529 -1.1567 0.0 0
M  V30 8 C -3.1171 -2.4596 0.0 0
M  V30 9 C 4.3713 -2.4109 0.0 0
M  V30 10 C -4.6757 -2.4109 0.0 0
M  V30 11 C 3.592 -3.6651 0.0 0
M  V30 12 C 5.8325 -2.3622 0.0 0
M  V30 13 C -5.4672 -3.6651 0.0 0
M  V30 14 C -5.4672 -1.0593 0.0 0
M  V30 15 C 2.0334 -3.6164 0.0 0
M  V30 END ATOM
M  V30 BEGIN BOND
M  V30 1 2 1 2
M  V30 2 1 1 3
M  V30 3 1 1 4
M  V30 4 1 2 5
M  V30 5 1 3 6
M  V30 6 1 5 7
M  V30 7 1 6 8
M  V30 8 1 7 9
M  V30 9 2 8 10
M  V30 10 2 9 11
M  V30 11 1 9 12
M  V30 12 1 10 13
M  V30 13 1 10 14
M  V30 14 1 11 15
M  V30 END BOND
M  V30 END CTAB
M  END
>  <Molecule Name>
(z)-beta-farnesene

>  <Molecule Name 2>
(z)-beta-farnesene

>  <Database>
Essential Oil Database

>  <InChI>
InChI=1S/C15H26/c1-6-14(4)10-8-12-15(5)11-7-9-13(2)3/h6,9,12H,7-8,10-11H2,1-5H3/b14-6-,15-12-

>  <InChI-Key>
JXBSHSBNOVLGHF-DZGURXQASA-N

>  <Smiles>
C/C=C(/C)\CC/C=C(/C)\CCC=C(C)C

>  <Molecular Formula>
C15H26

$$$$
spathulenol
Actelion Java MolfileCreator 2.0

  0  0  0  0  0  0              0 V3000
M  V30 BEGIN CTAB
M  V30 COUNTS 16 18 0 0 0
M  V30 BEGIN ATOM
M  V30 1 O 0.0 0.0 0.0 0
M  V30 2 C 1.1841 0.8492 0.0 0 CFG=2
M  V30 3 C 0.2033 2.0333 0.0 0 CFG=2
M  V30 4 C 2.5118 1.4472 0.0 0
M  V30 5 C 1.842 -0.4186 0.0 0
M  V30 6 C 0.9568 3.3251 0.0 0 CFG=1
M  V30 7 C -1.3276 1.9257 0.0 0 CFG=2
M  V30 8 C 2.3682 2.9783 0.0 0
M  V30 9 C 0.4186 4.7724 0.0 0
M  V30 10 C -2.8108 1.5908 0.0 0
M  V30 11 C -2.4041 3.0261 0.0 0 CFG=2
M  V30 12 C 1.4233 5.8489 0.0 0
M  V30 13 C -1.0286 5.3346 0.0 0
M  V30 14 C -4.3418 1.7822 0.0 0
M  V30 15 C -2.739 0.1554 0.0 0
M  V30 16 C -2.2726 4.5452 0.0 0
M  V30 END ATOM
M  V30 BEGIN BOND
M  V30 1 1 2 1 CFG=3
M  V30 2 1 2 3
M  V30 3 1 2 4
M  V30 4 1 2 5
M  V30 5 1 3 6
M  V30 6 1 3 7 CFG=1
M  V30 7 1 4 8
M  V30 8 1 6 9 CFG=3
M  V30 9 1 7 10 CFG=3
M  V30 10 1 7 11
M  V30 11 2 9 12
M  V30 12 1 9 13
M  V30 13 1 10 14
M  V30 14 1 10 15
M  V30 15 1 11 16 CFG=3
M  V30 16 1 6 8
M  V30 17 1 10 11
M  V30 18 1 13 16
M  V30 END BOND
M  V30 BEGIN COLLECTION
M  V30 MDLV30/STEABS ATOMS=(5 2 3 6 7 11)
M  V30 END COLLECTION
M  V30 END CTAB
M  END
>  <Molecule Name>
spathulenol

>  <Molecule Name 2>
spathulenol

>  <Database>
Essential Oil Database

>  <InChI>
InChI=1S/C15H24O/c1-9-5-6-11-13(14(11,2)3)12-10(9)7-8-15(12,4)16/h10-13,16H,1,5-8H2,2-4H3/t10-,11+,12+,13+,15-/m0/s1

>  <InChI-Key>
FRMCCTDTYSRUBE-BGPZULBFSA-N

>  <Smiles>
CC(C)([C@@H]1CCC([C@@H]2CC3)=C)[C@H]1[C@@H]2[C@@]3(C)O

>  <Molecular Formula>
C15H24O

$$$$
(z)-farnesol
Actelion Java MolfileCreator 2.0

  0  0  0  0  0  0              0 V3000
M  V30 BEGIN CTAB
M  V30 COUNTS 16 15 0 0 0
M  V30 BEGIN ATOM
M  V30 1 O 0.0 0.0 0.0 0
M  V30 2 C 0.7064 -1.2333 0.0 0
M  V30 3 C -0.0598 -2.4666 0.0 0
M  V30 4 C -1.5925 -2.4187 0.0 0
M  V30 5 C -2.3708 -1.0896 0.0 0
M  V30 6 C -2.3708 -3.652 0.0 0
M  V30 7 C -1.6524 0.2394 0.0 0
M  V30 8 C -2.4307 1.5685 0.0 0
M  V30 9 C -3.9634 1.6164 0.0 0
M  V30 10 C -4.7417 0.3831 0.0 0
M  V30 11 C -4.7417 2.9456 0.0 0
M  V30 12 C -6.2743 0.431 0.0 0
M  V30 13 C -7.0527 -0.8022 0.0 0
M  V30 14 C -8.5853 -0.7543 0.0 0
M  V30 15 C -9.3517 -1.9876 0.0 0
M  V30 16 C -9.3517 0.5747 0.0 0
M  V30 END ATOM
M  V30 BEGIN BOND
M  V30 1 1 1 2
M  V30 2 1 2 3
M  V30 3 2 3 4
M  V30 4 1 4 5
M  V30 5 1 4 6
M  V30 6 1 5 7
M  V30 7 1 7 8
M  V30 8 2 8 9
M  V30 9 1 9 10
M  V30 10 1 9 11
M  V30 11 1 10 12
M  V30 12 1 12 13
M  V30 13 2 13 14
M  V30 14 1 14 15
M  V30 15 1 14 16
M  V30 END BOND
M  V30 END CTAB
M  END
>  <Molecule Name>
(z)-farnesol

>  <Molecule Name 2>
(z)-farnesol

>  <Database>
Essential Oil Database

>  <InChI>
InChI=1S/C15H26O/c1-13(2)7-5-8-14(3)9-6-10-15(4)11-12-16/h7,9,11,16H,5-6,8,10,12H2,1-4H3/b14-9-,15-11-

>  <InChI-Key>
CRDAMVZIKSXKFV-FBXUGWQNSA-N

>  <Smiles>
CC(C)=CCC/C(\C)=C\CC/C(\C)=C\CO

>  <Molecular Formula>
C15H26O

$$$$
camphene
Actelion Java MolfileCreator 2.0

  0  0  0  0  0  0              0 V3000
M  V30 BEGIN CTAB
M  V30 COUNTS 10 11 0 0 0
M  V30 BEGIN ATOM
M  V30 1 C 0.0 0.0 0.0 0
M  V30 2 C -1.3569 0.7925 0.0 0
M  V30 3 C -0.048 -1.4649 0.0 0
M  V30 4 C 1.2608 0.7925 0.0 0
M  V30 5 C 1.2128 -2.1734 0.0 0
M  V30 6 C -0.6124 -2.8339 0.0 0
M  V30 7 C -1.585 -1.1527 0.0 0
M  V30 8 C 0.8285 -0.6724 0.0 0
M  V30 9 C 2.5217 0.084 0.0 0
M  V30 10 C 2.4736 -1.3809 0.0 0
M  V30 END ATOM
M  V30 BEGIN BOND
M  V30 1 2 1 2
M  V30 2 1 1 3
M  V30 3 1 1 4
M  V30 4 1 3 5
M  V30 5 1 3 6
M  V30 6 1 3 7
M  V30 7 1 4 8
M  V30 8 1 4 9
M  V30 9 1 5 10
M  V30 10 1 5 8
M  V30 11 1 9 10
M  V30 END BOND
M  V30 END CTAB
M  END
>  <Molecule Name>
camphene

>  <Molecule Name 2>
camphene

>  <Database>
Essential Oil Database

>  <InChI>
InChI=1S/C10H16/c1-7-8-4-5-9(6-8)10(7,2)3/h8-9H,1,4-6H2,2-3H3

>  <InChI-Key>
CRPUJAZIXJMDBK-UHFFFAOYSA-N

>  <Smiles>
CC(C)(C1CC2CC1)C2=C

>  <Molecular Formula>
C10H16

$$$$
beta-phellandrene
Actelion Java MolfileCreator 2.0

  0  0  0  0  0  0              0 V3000
M  V30 BEGIN CTAB
M  V30 COUNTS 10 10 0 0 0
M  V30 BEGIN ATOM
M  V30 1 C 0.0 0.0 0.0 0
M  V30 2 C -1.3261 0.7765 0.0 0
M  V30 3 C -0.0477 -1.4336 0.0 0
M  V30 4 C 1.2305 0.7765 0.0 0
M  V30 5 C -1.3739 2.3057 0.0 0
M  V30 6 C 1.1827 2.3057 0.0 0
M  V30 7 C -0.1433 3.0823 0.0 0 CFG=1
M  V30 8 C -0.1911 4.6115 0.0 0
M  V30 9 C -1.5172 5.3881 0.0 0
M  V30 10 C 1.0393 5.3881 0.0 0
M  V30 END ATOM
M  V30 BEGIN BOND
M  V30 1 1 1 2
M  V30 2 2 1 3
M  V30 3 1 1 4
M  V30 4 2 2 5
M  V30 5 1 4 6
M  V30 6 1 5 7
M  V30 7 1 7 8 CFG=3
M  V30 8 1 8 9
M  V30 9 1 8 10
M  V30 10 1 6 7
M  V30 END BOND
M  V30 BEGIN COLLECTION
M  V30 MDLV30/STERAC1 ATOMS=(1 7)
M  V30 END COLLECTION
M  V30 END CTAB
M  END
>  <Molecule Name>
beta-phellandrene

>  <Molecule Name 2>
beta-phellandrene

>  <Database>
Essential Oil Database

>  <InChI>
InChI=1S/C10H16/c1-8(2)10-6-4-9(3)5-7-10/h4,6,8,10H,3,5,7H2,1-2H3/t10-/m0/s1

>  <InChI-Key>
LFJQCDVYDGGFCH-JTQLQIEISA-N

>  <Smiles>
CC(C)C(CC1)C=CC1=C

>  <Molecular Formula>
C10H16

$$$$
gamma-terpinene
Actelion Java MolfileCreator 2.0

  0  0  0  0  0  0              0 V3000
M  V30 BEGIN CTAB
M  V30 COUNTS 10 10 0 0 0
M  V30 BEGIN ATOM
M  V30 1 C 0.0 0.0 0.0 0
M  V30 2 C 1.2586 -0.7209 0.0 0
M  V30 3 C -0.0488 1.5641 0.0 0
M  V30 4 C -1.3564 -0.7209 0.0 0
M  V30 5 C 1.2097 -2.1873 0.0 0
M  V30 6 C -1.4052 2.3584 0.0 0
M  V30 7 C 1.2097 2.3584 0.0 0
M  V30 8 C -1.4052 -2.1873 0.0 0
M  V30 9 C -0.1466 -2.9083 0.0 0
M  V30 10 C -0.1955 -4.3747 0.0 0
M  V30 END ATOM
M  V30 BEGIN BOND
M  V30 1 2 1 2
M  V30 2 1 1 3
M  V30 3 1 1 4
M  V30 4 1 2 5
M  V30 5 1 3 6
M  V30 6 1 3 7
M  V30 7 1 4 8
M  V30 8 1 5 9
M  V30 9 1 9 10
M  V30 10 2 8 9
M  V30 END BOND
M  V30 END CTAB
M  END
>  <Molecule Name>
gamma-terpinene

>  <Molecule Name 2>
gamma-terpinene

>  <Database>
Essential Oil Database

>  <InChI>
InChI=1S/C10H16/c1-8(2)10-6-4-9(3)5-7-10/h4,7-8H,5-6H2,1-3H3

>  <InChI-Key>
YKFLAYDHMOASIY-UHFFFAOYSA-N

>  <Smiles>
CC(C)C1=CCC(C)=CC1

>  <Molecular Formula>
C10H16

$$$$
bicyclogermacrene
Actelion Java MolfileCreator 2.0

  0  0  0  0  0  0              0 V3000
M  V30 BEGIN CTAB
M  V30 COUNTS 15 16 0 0 0
M  V30 BEGIN ATOM
M  V30 1 C 0.0 0.0 0.0 0
M  V30 2 C -0.6891 1.3782 0.0 0
M  V30 3 C 1.4257 -0.0712 0.0 0
M  V30 4 C -0.8792 -1.1643 0.0 0
M  V30 5 C -2.2099 1.5445 0.0 0 CFG=2
M  V30 6 C 2.2099 1.1881 0.0 0
M  V30 7 C -3.7307 1.7109 0.0 0
M  V30 8 C -2.899 2.9227 0.0 0 CFG=2
M  V30 9 C 1.5208 2.5663 0.0 0
M  V30 10 C -5.2396 2.0079 0.0 0
M  V30 11 C -4.4911 0.4752 0.0 0
M  V30 12 C -2.1148 4.1822 0.0 0
M  V30 13 C 0.0 2.7326 0.0 0
M  V30 14 C -0.6891 4.1109 0.0 0
M  V30 15 C -1.4376 2.2812 0.0 0
M  V30 END ATOM
M  V30 BEGIN BOND
M  V30 1 2 1 2
M  V30 2 1 1 3
M  V30 3 1 1 4
M  V30 4 1 2 5
M  V30 5 1 3 6
M  V30 6 1 5 7 CFG=3
M  V30 7 1 5 8
M  V30 8 1 6 9
M  V30 9 1 7 10
M  V30 10 1 7 11
M  V30 11 1 8 12
M  V30 12 2 9 13
M  V30 13 1 12 14
M  V30 14 1 13 15
M  V30 15 1 8 7 CFG=3
M  V30 16 1 13 14
M  V30 END BOND
M  V30 BEGIN COLLECTION
M  V30 MDLV30/STEABS ATOMS=(2 5 8)
M  V30 END COLLECTION
M  V30 END CTAB
M  END
>  <Molecule Name>
bicyclogermacrene

>  <Molecule Name 2>
bicyclogermacrene

>  <Database>
Essential Oil Database

>  <InChI>
InChI=1S/C15H24/c1-11-6-5-7-12(2)10-14-13(9-8-11)15(14,3)4/h6,10,13-14H,5,7-9H2,1-4H3/b11-6-,12-10+/t13-,14+/m1/s1

>  <InChI-Key>
VPDZRSSKICPUEY-PWYDEKCSSA-N

>  <Smiles>
CC1(C)[C@H]2/C=C(\C)/CC/C=C(\C)/CC[C@@H]12

>  <Molecular Formula>
C15H24

$$$$
beta-bisabolol
Actelion Java MolfileCreator 2.0

  0  0  0  0  0  0              0 V3000
M  V30 BEGIN CTAB
M  V30 COUNTS 16 16 0 0 0
M  V30 BEGIN ATOM
M  V30 1 O 0.0 0.0 0.0 0
M  V30 2 C 0.9515 -1.1277 0.0 0 CFG=1
M  V30 3 C 1.9031 0.0939 0.0 0 CFG=2
M  V30 4 C -0.4229 -1.8208 0.0 0
M  V30 5 C 2.232 -1.8208 0.0 0
M  V30 6 C 3.3598 -0.1174 0.0 0
M  V30 7 C 1.3509 1.5741 0.0 0
M  V30 8 C -0.4699 -3.301 0.0 0
M  V30 9 C 2.185 -3.301 0.0 0
M  V30 10 C 4.3113 1.1042 0.0 0
M  V30 11 C 0.8105 -3.9942 0.0 0
M  V30 12 C 5.768 0.8928 0.0 0
M  V30 13 C 0.7635 -5.4744 0.0 0
M  V30 14 C 6.2262 -0.4934 0.0 0
M  V30 15 C 7.6829 -0.7048 0.0 0
M  V30 16 C 5.1807 -1.6211 0.0 0
M  V30 END ATOM
M  V30 BEGIN BOND
M  V30 1 1 2 1 CFG=3
M  V30 2 1 2 3
M  V30 3 1 2 4
M  V30 4 1 2 5
M  V30 5 1 3 6
M  V30 6 1 3 7 CFG=1
M  V30 7 1 4 8
M  V30 8 1 5 9
M  V30 9 1 6 10
M  V30 10 2 8 11
M  V30 11 1 10 12
M  V30 12 1 11 13
M  V30 13 2 12 14
M  V30 14 1 14 15
M  V30 15 1 14 16
M  V30 16 1 9 11
M  V30 END BOND
M  V30 BEGIN COLLECTION
M  V30 MDLV30/STEABS ATOMS=(2 2 3)
M  V30 END COLLECTION
M  V30 END CTAB
M  END
>  <Molecule Name>
beta-bisabolol

>  <Molecule Name 2>
beta-bisabolol

>  <Database>
Essential Oil Database

>  <InChI>
InChI=1S/C15H26O/c1-12(2)6-5-7-14(4)15(16)10-8-13(3)9-11-15/h6,8,14,16H,5,7,9-11H2,1-4H3/t14-,15-/m0/s1

>  <InChI-Key>
WTVHAMTYZJGJLJ-GJZGRUSLSA-N

>  <Smiles>
C[C@@H](CCC=C(C)C)[C@@]1(CC=C(C)CC1)O

>  <Molecular Formula>
C15H26O

$$$$
terpinen-4-ol
Actelion Java MolfileCreator 2.0

  0  0  0  0  0  0              0 V3000
M  V30 BEGIN CTAB
M  V30 COUNTS 11 11 0 0 0
M  V30 BEGIN ATOM
M  V30 1 O 0.0 0.0 0.0 0
M  V30 2 C 0.951 -1.1271 0.0 0 CFG=2
M  V30 3 C 1.902 0.0939 0.0 0
M  V30 4 C -0.4226 -1.8198 0.0 0
M  V30 5 C 2.2307 -1.8198 0.0 0
M  V30 6 C 3.3578 -0.1174 0.0 0
M  V30 7 C 1.3501 1.5732 0.0 0
M  V30 8 C -0.4696 -3.2991 0.0 0
M  V30 9 C 2.1837 -3.2991 0.0 0
M  V30 10 C 0.8101 -3.9918 0.0 0
M  V30 11 C 0.7631 -5.4712 0.0 0
M  V30 END ATOM
M  V30 BEGIN BOND
M  V30 1 1 2 1 CFG=1
M  V30 2 1 2 3
M  V30 3 1 2 4
M  V30 4 1 2 5
M  V30 5 1 3 6
M  V30 6 1 3 7
M  V30 7 1 4 8
M  V30 8 1 5 9
M  V30 9 2 8 10
M  V30 10 1 10 11
M  V30 11 1 9 10
M  V30 END BOND
M  V30 BEGIN COLLECTION
M  V30 MDLV30/STERAC1 ATOMS=(1 2)
M  V30 END COLLECTION
M  V30 END CTAB
M  END
>  <Molecule Name>
terpinen-4-ol

>  <Molecule Name 2>
terpinen-4-ol

>  <Database>
Essential Oil Database

>  <InChI>
InChI=1S/C10H18O/c1-8(2)10(11)6-4-9(3)5-7-10/h4,8,11H,5-7H2,1-3H3/t10-/m1/s1

>  <InChI-Key>
WRYLYDPHFGVWKC-SNVBAGLBSA-N

>  <Smiles>
CC(C)C1(CC=C(C)CC1)O

>  <Molecular Formula>
C10H18O

$$$$
beta-pinene
Actelion Java MolfileCreator 2.0

  0  0  0  0  0  0              0 V3000
M  V30 BEGIN CTAB
M  V30 COUNTS 10 11 0 0 0
M  V30 BEGIN ATOM
M  V30 1 C 0.0 0.0 0.0 0
M  V30 2 C 0.7254 -1.2454 0.0 0
M  V30 3 C -1.5476 0.0483 0.0 0
M  V30 4 C 0.7254 1.3421 0.0 0
M  V30 5 C -2.3336 1.3905 0.0 0
M  V30 6 C -1.2695 1.3905 0.0 0
M  V30 7 C -0.0604 2.6842 0.0 0
M  V30 8 C -1.6081 2.7326 0.0 0
M  V30 9 C -3.5185 2.394 0.0 0
M  V30 10 C -3.5185 0.4836 0.0 0
M  V30 END ATOM
M  V30 BEGIN BOND
M  V30 1 2 1 2
M  V30 2 1 1 3
M  V30 3 1 1 4
M  V30 4 1 3 5
M  V30 5 1 3 6
M  V30 6 1 4 7
M  V30 7 1 5 8
M  V30 8 1 5 9
M  V30 9 1 5 10
M  V30 10 1 6 8
M  V30 11 1 7 8
M  V30 END BOND
M  V30 END CTAB
M  END
>  <Molecule Name>
beta-pinene

>  <Molecule Name 2>
beta-pinene

>  <Database>
Essential Oil Database

>  <InChI>
InChI=1S/C10H16/c1-7-4-5-8-6-9(7)10(8,2)3/h8-9H,1,4-6H2,2-3H3

>  <InChI-Key>
WTARULDDTDQWMU-UHFFFAOYSA-N

>  <Smiles>
CC(C)(C(C1)CC2)C1C2=C

>  <Molecular Formula>
C10H16

$$$$
p-cymene
Actelion Java MolfileCreator 2.0

  0  0  0  0  0  0              0 V3000
M  V30 BEGIN CTAB
M  V30 COUNTS 10 10 0 0 0
M  V30 BEGIN ATOM
M  V30 1 C 0.0 0.0 0.0 0
M  V30 2 C 1.2365 0.7683 0.0 0
M  V30 3 C -1.3325 0.7683 0.0 0
M  V30 4 C -0.048 -1.4406 0.0 0
M  V30 5 C 1.1885 2.305 0.0 0
M  V30 6 C -1.3806 2.305 0.0 0
M  V30 7 C 1.1885 -2.1609 0.0 0
M  V30 8 C -1.3806 -2.1609 0.0 0
M  V30 9 C -0.144 3.0853 0.0 0
M  V30 10 C -0.192 4.622 0.0 0
M  V30 END ATOM
M  V30 BEGIN BOND
M  V30 1 2 1 2
M  V30 2 1 1 3
M  V30 3 1 1 4
M  V30 4 1 2 5
M  V30 5 2 3 6
M  V30 6 1 4 7
M  V30 7 1 4 8
M  V30 8 2 5 9
M  V30 9 1 9 10
M  V30 10 1 6 9
M  V30 END BOND
M  V30 END CTAB
M  END
>  <Molecule Name>
p-cymene

>  <Molecule Name 2>
p-cymene

>  <Database>
Essential Oil Database

>  <InChI>
InChI=1S/C10H14/c1-8(2)10-6-4-9(3)5-7-10/h4-8H,1-3H3

>  <InChI-Key>
HFPZCAJZSCWRBC-UHFFFAOYSA-N

>  <Smiles>
CC(C)c1ccc(C)cc1

>  <Molecular Formula>
C10H14

$$$$
beta-elemene
Actelion Java MolfileCreator 2.0

  0  0  0  0  0  0              0 V3000
M  V30 BEGIN CTAB
M  V30 COUNTS 15 15 0 0 0
M  V30 BEGIN ATOM
M  V30 1 C 0.0 0.0 0.0 0
M  V30 2 C -0.0482 1.543 0.0 0
M  V30 3 C -1.3381 -0.7112 0.0 0 CFG=1
M  V30 4 C 1.2416 -0.7112 0.0 0
M  V30 5 C -2.6762 0.0602 0.0 0 CFG=2
M  V30 6 C -1.3863 -2.1578 0.0 0
M  V30 7 C -1.7721 1.2416 0.0 0
M  V30 8 C -4.0143 -0.6509 0.0 0
M  V30 9 C -3.6768 1.2416 0.0 0
M  V30 10 C -2.7244 -2.8691 0.0 0 CFG=1
M  V30 11 C -2.3386 2.6882 0.0 0
M  V30 12 C -4.0625 -2.0975 0.0 0
M  V30 13 C -2.7726 -4.3157 0.0 0
M  V30 14 C -4.1107 -5.039 0.0 0
M  V30 15 C -1.531 -5.039 0.0 0
M  V30 END ATOM
M  V30 BEGIN BOND
M  V30 1 2 1 2
M  V30 2 1 3 1 CFG=3
M  V30 3 1 1 4
M  V30 4 1 3 5
M  V30 5 1 3 6
M  V30 6 1 5 7
M  V30 7 1 5 8
M  V30 8 1 5 9 CFG=3
M  V30 9 1 6 10
M  V30 10 2 7 11
M  V30 11 1 8 12
M  V30 12 1 10 13 CFG=3
M  V30 13 2 13 14
M  V30 14 1 13 15
M  V30 15 1 10 12
M  V30 END BOND
M  V30 BEGIN COLLECTION
M  V30 MDLV30/STEABS ATOMS=(3 3 5 10)
M  V30 END COLLECTION
M  V30 END CTAB
M  END
>  <Molecule Name>
beta-elemene

>  <Molecule Name 2>
beta-elemene

>  <Database>
Essential Oil Database

>  <InChI>
InChI=1S/C15H24/c1-7-15(6)9-8-13(11(2)3)10-14(15)12(4)5/h7,13-14H,1-2,4,8-10H2,3,5-6H3/t13-,14+,15-/m1/s1

>  <InChI-Key>
OPFTUNCRGUEPRZ-QLFBSQMISA-N

>  <Smiles>
C[C@@](CC[C@H](C1)C(C)=C)([C@@H]1C(C)=C)C=C

>  <Molecular Formula>
C15H24

$$$$
limonene
Actelion Java MolfileCreator 2.0

  0  0  0  0  0  0              0 V3000
M  V30 BEGIN CTAB
M  V30 COUNTS 10 10 0 0 0
M  V30 BEGIN ATOM
M  V30 1 C 0.0 0.0 0.0 0
M  V30 2 C -1.3261 0.7765 0.0 0
M  V30 3 C 1.2305 0.7765 0.0 0
M  V30 4 C -0.0477 -1.4336 0.0 0
M  V30 5 C -1.3739 2.3057 0.0 0
M  V30 6 C 1.1827 2.3057 0.0 0
M  V30 7 C -0.1433 3.0823 0.0 0 CFG=2
M  V30 8 C -0.1911 4.6115 0.0 0
M  V30 9 C 1.0393 5.3881 0.0 0
M  V30 10 C -1.5172 5.3881 0.0 0
M  V30 END ATOM
M  V30 BEGIN BOND
M  V30 1 2 1 2
M  V30 2 1 1 3
M  V30 3 1 1 4
M  V30 4 1 2 5
M  V30 5 1 3 6
M  V30 6 1 5 7
M  V30 7 1 7 8 CFG=1
M  V30 8 2 8 9
M  V30 9 1 8 10
M  V30 10 1 6 7
M  V30 END BOND
M  V30 BEGIN COLLECTION
M  V30 MDLV30/STERAC1 ATOMS=(1 7)
M  V30 END COLLECTION
M  V30 END CTAB
M  END
>  <Molecule Name>
limonene

>  <Molecule Name 2>
limonene

>  <Database>
Essential Oil Database

>  <InChI>
InChI=1S/C10H16/c1-8(2)10-6-4-9(3)5-7-10/h4,10H,1,5-7H2,2-3H3/t10-/m1/s1

>  <InChI-Key>
XMGQYMWWDOXHJM-SNVBAGLBSA-N

>  <Smiles>
CC(C1CC=C(C)CC1)=C

>  <Molecular Formula>
C10H16

$$$$
alpha-bisabolol
Actelion Java MolfileCreator 2.0

  0  0  0  0  0  0              0 V3000
M  V30 BEGIN CTAB
M  V30 COUNTS 16 16 0 0 0
M  V30 BEGIN ATOM
M  V30 1 O 0.0 0.0 0.0 0
M  V30 2 C -1.553 0.0485 0.0 0
M  V30 3 C -1.6016 -1.4074 0.0 0
M  V30 4 C -1.6016 1.6016 0.0 0
M  V30 5 C -3.1061 0.097 0.0 0
M  V30 6 C -2.9484 -2.1233 0.0 0
M  V30 7 C -0.3518 -2.1233 0.0 0
M  V30 8 C -2.9484 2.3781 0.0 0
M  V30 9 C -2.9969 -3.5793 0.0 0
M  V30 10 C -0.4004 -3.5793 0.0 0
M  V30 11 C -2.9969 3.9312 0.0 0
M  V30 12 C -1.7472 -4.2952 0.0 0
M  V30 13 C -1.7472 4.7198 0.0 0
M  V30 14 C -1.7957 -5.7512 0.0 0
M  V30 15 C -1.7957 6.2729 0.0 0
M  V30 16 C -0.4974 4.004 0.0 0
M  V30 END ATOM
M  V30 BEGIN BOND
M  V30 1 1 1 2
M  V30 2 1 2 3
M  V30 3 1 2 4
M  V30 4 1 2 5
M  V30 5 1 3 6
M  V30 6 1 3 7
M  V30 7 1 4 8
M  V30 8 1 6 9
M  V30 9 1 7 10
M  V30 10 1 8 11
M  V30 11 2 9 12
M  V30 12 2 11 13
M  V30 13 1 12 14
M  V30 14 1 13 15
M  V30 15 1 13 16
M  V30 16 1 10 12
M  V30 END BOND
M  V30 END CTAB
M  END
>  <Molecule Name>
alpha-bisabolol

>  <Molecule Name 2>
alpha-bisabolol

>  <Database>
Essential Oil Database

>  <InChI>
InChI=1S/C15H26O/c1-12(2)6-5-11-15(4,16)14-9-7-13(3)8-10-14/h6-7,14,16H,5,8-11H2,1-4H3

>  <InChI-Key>
RGZSQWQPBWRIAQ-UHFFFAOYSA-N

>  <Smiles>
CC(CCC=C(C)C)(C1CC=C(C)CC1)O

>  <Molecular Formula>
C15H26O

$$$$
myrcene
Actelion Java MolfileCreator 2.0

  0  0  0  0  0  0              0 V3000
M  V30 BEGIN CTAB
M  V30 COUNTS 10 9 0 0 0
M  V30 BEGIN ATOM
M  V30 1 C 0.0 0.0 0.0 0
M  V30 2 C 1.2299 -0.7045 0.0 0
M  V30 3 C -0.0477 1.5285 0.0 0
M  V30 4 C -1.3255 -0.7045 0.0 0
M  V30 5 C 2.4599 0.0716 0.0 0
M  V30 6 C -2.651 0.0716 0.0 0
M  V30 7 C -3.9765 -0.6329 0.0 0
M  V30 8 C -5.302 0.1313 0.0 0
M  V30 9 C -6.6276 -0.5731 0.0 0
M  V30 10 C -5.3498 1.6598 0.0 0
M  V30 END ATOM
M  V30 BEGIN BOND
M  V30 1 1 1 2
M  V30 2 2 1 3
M  V30 3 1 1 4
M  V30 4 2 2 5
M  V30 5 1 4 6
M  V30 6 1 6 7
M  V30 7 2 7 8
M  V30 8 1 8 9
M  V30 9 1 8 10
M  V30 END BOND
M  V30 END CTAB
M  END
>  <Molecule Name>
myrcene

>  <Molecule Name 2>
myrcene

>  <Database>
Essential Oil Database

>  <InChI>
InChI=1S/C10H16/c1-5-10(4)8-6-7-9(2)3/h5,7H,1,4,6,8H2,2-3H3

>  <InChI-Key>
UAHWPYUMFXYFJY-UHFFFAOYSA-N

>  <Smiles>
CC(C)=CCCC(C=C)=C

>  <Molecular Formula>
C10H16

$$$$
alpha-pinene
Actelion Java MolfileCreator 2.0

  0  0  0  0  0  0              0 V3000
M  V30 BEGIN CTAB
M  V30 COUNTS 10 11 0 0 0
M  V30 BEGIN ATOM
M  V30 1 C 0.0 0.0 0.0 0
M  V30 2 C 0.7339 -1.2813 0.0 0
M  V30 3 C -1.5923 0.0622 0.0 0
M  V30 4 C 0.7464 1.3808 0.0 0
M  V30 5 C -0.0746 -2.5626 0.0 0
M  V30 6 C -2.4009 -1.2191 0.0 0
M  V30 7 C -1.7789 -1.2813 0.0 0
M  V30 8 C -1.6669 -2.5004 0.0 0
M  V30 9 C -3.8066 -0.4229 0.0 0
M  V30 10 C -3.8066 -1.9033 0.0 0
M  V30 END ATOM
M  V30 BEGIN BOND
M  V30 1 2 1 2
M  V30 2 1 1 3
M  V30 3 1 1 4
M  V30 4 1 2 5
M  V30 5 1 3 6
M  V30 6 1 3 7
M  V30 7 1 5 8
M  V30 8 1 6 9
M  V30 9 1 6 10
M  V30 10 1 6 8
M  V30 11 1 7 8
M  V30 END BOND
M  V30 END CTAB
M  END
>  <Molecule Name>
alpha-pinene

>  <Molecule Name 2>
alpha-pinene

>  <Database>
Essential Oil Database

>  <InChI>
InChI=1S/C10H16/c1-7-4-5-8-6-9(7)10(8,2)3/h4,8-9H,5-6H2,1-3H3

>  <InChI-Key>
GRWFGVWFFZKLTI-UHFFFAOYSA-N

>  <Smiles>
CC1(C)C2C(C)=CCC1C2

>  <Molecular Formula>
C10H16

$$$$
sabinene
Actelion Java MolfileCreator 2.0

  0  0  0  0  0  0              0 V3000
M  V30 BEGIN CTAB
M  V30 COUNTS 10 11 0 0 0
M  V30 BEGIN ATOM
M  V30 1 C 0.0 0.0 0.0 0
M  V30 2 C 0.4226 1.4851 0.0 0
M  V30 3 C -1.4851 -0.4226 0.0 0
M  V30 4 C 0.8331 -1.1712 0.0 0
M  V30 5 C -1.5334 -1.8836 0.0 0
M  V30 6 C -2.8375 -1.147 0.0 0
M  V30 7 C -0.0965 -2.3424 0.0 0
M  V30 8 C -2.2096 -3.2118 0.0 0
M  V30 9 C -3.7551 -3.3204 0.0 0
M  V30 10 C -1.3764 -4.383 0.0 0
M  V30 END ATOM
M  V30 BEGIN BOND
M  V30 1 2 1 2
M  V30 2 1 1 3
M  V30 3 1 1 4
M  V30 4 1 3 5
M  V30 5 1 3 6
M  V30 6 1 4 7
M  V30 7 1 5 8
M  V30 8 1 8 9
M  V30 9 1 8 10
M  V30 10 1 5 6
M  V30 11 1 5 7
M  V30 END BOND
M  V30 END CTAB
M  END
>  <Molecule Name>
sabinene

>  <Molecule Name 2>
sabinene

>  <Database>
Essential Oil Database

>  <InChI>
InChI=1S/C10H16/c1-7(2)10-5-4-8(3)9(10)6-10/h7,9H,3-6H2,1-2H3

>  <InChI-Key>
NDVASEGYNIMXJL-UHFFFAOYSA-N

>  <Smiles>
CC(C)C(C1)(CC2)C1C2=C

>  <Molecular Formula>
C10H16

$$$$
alpha-terpinene
Actelion Java MolfileCreator 2.0

  0  0  0  0  0  0              0 V3000
M  V30 BEGIN CTAB
M  V30 COUNTS 10 10 0 0 0
M  V30 BEGIN ATOM
M  V30 1 C 0.0 0.0 0.0 0
M  V30 2 C 1.2586 -0.7209 0.0 0
M  V30 3 C -0.0488 1.5641 0.0 0
M  V30 4 C -1.3564 -0.7209 0.0 0
M  V30 5 C 1.2097 -2.1873 0.0 0
M  V30 6 C -1.4052 2.3584 0.0 0
M  V30 7 C 1.2097 2.3584 0.0 0
M  V30 8 C -1.4052 -2.1873 0.0 0
M  V30 9 C -0.1466 -2.9083 0.0 0
M  V30 10 C -0.1955 -4.3747 0.0 0
M  V30 END ATOM
M  V30 BEGIN BOND
M  V30 1 2 1 2
M  V30 2 1 1 3
M  V30 3 1 1 4
M  V30 4 1 2 5
M  V30 5 1 3 6
M  V30 6 1 3 7
M  V30 7 1 4 8
M  V30 8 2 5 9
M  V30 9 1 9 10
M  V30 10 1 8 9
M  V30 END BOND
M  V30 END CTAB
M  END
>  <Molecule Name>
alpha-terpinene

>  <Molecule Name 2>
alpha-terpinene

>  <Database>
Essential Oil Database

>  <InChI>
InChI=1S/C10H16/c1-8(2)10-6-4-9(3)5-7-10/h4,6,8H,5,7H2,1-3H3

>  <InChI-Key>
YHQGMYUVUMAZJR-UHFFFAOYSA-N

>  <Smiles>
CC(C)C1=CC=C(C)CC1

>  <Molecular Formula>
C10H16

$$$$
alpha-campholenal
Actelion Java MolfileCreator 2.0

  0  0  0  0  0  0              0 V3000
M  V30 BEGIN CTAB
M  V30 COUNTS 11 11 0 0 0
M  V30 BEGIN ATOM
M  V30 1 O 0.0 0.0 0.0 0
M  V30 2 C 1.4049 -0.4097 0.0 0
M  V30 3 C 1.6625 -1.8498 0.0 0
M  V30 4 C 3.0674 -2.2596 0.0 0 CFG=2
M  V30 5 C 4.2617 -1.2995 0.0 0
M  V30 6 C 3.4772 -3.6645 0.0 0
M  V30 7 C 5.4559 -2.1659 0.0 0
M  V30 8 C 3.4655 0.0819 0.0 0
M  V30 9 C 4.9407 0.0819 0.0 0
M  V30 10 C 4.9524 -3.6177 0.0 0
M  V30 11 C 6.8608 -1.6625 0.0 0
M  V30 END ATOM
M  V30 BEGIN BOND
M  V30 1 2 1 2
M  V30 2 1 2 3
M  V30 3 1 4 3 CFG=3
M  V30 4 1 4 5
M  V30 5 1 4 6
M  V30 6 1 5 7
M  V30 7 1 5 8
M  V30 8 1 5 9
M  V30 9 1 6 10
M  V30 10 1 7 11
M  V30 11 2 7 10
M  V30 END BOND
M  V30 BEGIN COLLECTION
M  V30 MDLV30/STEABS ATOMS=(1 4)
M  V30 END COLLECTION
M  V30 END CTAB
M  END
>  <Molecule Name>
alpha-campholenal

>  <Molecule Name 2>
alpha-campholenal

>  <Database>
Essential Oil Database

>  <InChI>
InChI=1S/C10H16O/c1-8-4-5-9(6-7-11)10(8,2)3/h4,7,9H,5-6H2,1-3H3/t9-/m1/s1

>  <InChI-Key>
OGCGGWYLHSJRFY-SECBINFHSA-N

>  <Smiles>
CC1(C)C(C)=CC[C@@H]1CC=O

>  <Molecular Formula>
C10H16O

$$$$
(z)-p-mentha-1,5-dien-8-ol
Actelion Java MolfileCreator 2.0

  0  0  0  0  0  0              0 V3000
M  V30 BEGIN CTAB
M  V30 COUNTS 11 11 0 0 0
M  V30 BEGIN ATOM
M  V30 1 O 0.0 0.0 0.0 0
M  V30 2 C 1.4417 0.048 0.0 0
M  V30 3 C 1.3937 1.5859 0.0 0 CFG=1
M  V30 4 C 1.3937 -1.3937 0.0 0
M  V30 5 C 2.8835 0.0961 0.0 0
M  V30 6 C 2.6312 2.3669 0.0 0
M  V30 7 C 0.06 2.3669 0.0 0
M  V30 8 C 2.5831 3.9048 0.0 0
M  V30 9 C 0.012 3.9048 0.0 0
M  V30 10 C 1.2495 4.6857 0.0 0
M  V30 11 C 1.2014 6.2236 0.0 0
M  V30 END ATOM
M  V30 BEGIN BOND
M  V30 1 1 1 2
M  V30 2 1 3 2 CFG=3
M  V30 3 1 2 4
M  V30 4 1 2 5
M  V30 5 1 3 6
M  V30 6 1 3 7
M  V30 7 2 6 8
M  V30 8 1 7 9
M  V30 9 1 8 10
M  V30 10 1 10 11
M  V30 11 2 9 10
M  V30 END BOND
M  V30 BEGIN COLLECTION
M  V30 MDLV30/STERAC1 ATOMS=(1 3)
M  V30 END COLLECTION
M  V30 END CTAB
M  END
>  <Molecule Name>
(z)-p-mentha-1,5-dien-8-ol

>  <Molecule Name 2>
(z)-p-mentha-1,5-dien-8-ol

>  <Database>
Essential Oil Database

>  <InChI>
InChI=1S/C10H16O/c1-8-4-6-9(7-5-8)10(2,3)11/h4-6,9,11H,7H2,1-3H3/t9-/m0/s1

>  <InChI-Key>
FQEXRDMYDXBXEO-VIFPVBQESA-N

>  <Smiles>
CC(C)(C1C=CC(C)=CC1)O

>  <Molecular Formula>
C10H16O

$$$$
borneol
Actelion Java MolfileCreator 2.0

  0  0  0  0  0  0              0 V3000
M  V30 BEGIN CTAB
M  V30 COUNTS 11 12 0 0 0
M  V30 BEGIN ATOM
M  V30 1 O 0.0 0.0 0.0 0
M  V30 2 C -1.3071 0.7536 0.0 0
M  V30 3 C -2.6142 0.0588 0.0 0
M  V30 4 C -1.3542 2.261 0.0 0
M  V30 5 C -3.0382 1.5662 0.0 0
M  V30 6 C -3.9214 0.8243 0.0 0
M  V30 7 C -2.6613 -1.3542 0.0 0
M  V30 8 C -2.6613 3.0146 0.0 0
M  V30 9 C -4.4866 2.0372 0.0 0
M  V30 10 C -4.4866 1.1893 0.0 0
M  V30 11 C -3.9685 2.3316 0.0 0
M  V30 END ATOM
M  V30 BEGIN BOND
M  V30 1 1 1 2
M  V30 2 1 2 3
M  V30 3 1 2 4
M  V30 4 1 3 5
M  V30 5 1 3 6
M  V30 6 1 3 7
M  V30 7 1 4 8
M  V30 8 1 5 9
M  V30 9 1 5 10
M  V30 10 1 6 11
M  V30 11 1 5 8
M  V30 12 1 8 11
M  V30 END BOND
M  V30 END CTAB
M  END
>  <Molecule Name>
borneol

>  <Molecule Name 2>
borneol

>  <Database>
Essential Oil Database

>  <InChI>
InChI=1S/C10H18O/c1-9(2)7-4-5-10(9,3)8(11)6-7/h7-8,11H,4-6H2,1-3H3

>  <InChI-Key>
DTGKSKDOIYIVQL-UHFFFAOYSA-N

>  <Smiles>
CC(C)(C(CC1)C2)C1(C)C2O

>  <Molecular Formula>
C10H18O

$$$$
7-epi-sesquithujene
Actelion Java MolfileCreator 2.0

  0  0  0  0  0  0              0 V3000
M  V30 BEGIN CTAB
M  V30 COUNTS 15 16 0 0 0
M  V30 BEGIN ATOM
M  V30 1 C 0.0 0.0 0.0 0
M  V30 2 C 0.8262 -1.1615 0.0 0
M  V30 3 C -1.4729 -0.4191 0.0 0 CFG=1
M  V30 4 C 0.4191 1.4729 0.0 0
M  V30 5 C -0.0957 -2.3231 0.0 0
M  V30 6 C -1.5208 -1.868 0.0 0 CFG=1
M  V30 7 C -2.8141 -1.1376 0.0 0
M  V30 8 C -2.1914 -3.1853 0.0 0 CFG=1
M  V30 9 C -3.7242 -3.2931 0.0 0
M  V30 10 C -1.3651 -4.3469 0.0 0
M  V30 11 C -4.3948 -4.6103 0.0 0
M  V30 12 C -5.9276 -4.7181 0.0 0
M  V30 13 C -6.8496 -3.4607 0.0 0
M  V30 14 C -8.3824 -3.5685 0.0 0
M  V30 15 C -6.2748 -2.0477 0.0 0
M  V30 END ATOM
M  V30 BEGIN BOND
M  V30 1 2 1 2
M  V30 2 1 3 1 CFG=1
M  V30 3 1 1 4
M  V30 4 1 2 5
M  V30 5 1 3 6
M  V30 6 1 3 7
M  V30 7 1 6 8
M  V30 8 1 8 9
M  V30 9 1 8 10 CFG=3
M  V30 10 1 9 11
M  V30 11 1 11 12
M  V30 12 2 12 13
M  V30 13 1 13 14
M  V30 14 1 13 15
M  V30 15 1 6 5 CFG=1
M  V30 16 1 6 7
M  V30 END BOND
M  V30 BEGIN COLLECTION
M  V30 MDLV30/STEABS ATOMS=(3 3 6 8)
M  V30 END COLLECTION
M  V30 END CTAB
M  END
>  <Molecule Name>
7-epi-sesquithujene

>  <Molecule Name 2>
7-epi-sesquithujene

>  <Database>
Essential Oil Database

>  <InChI>
InChI=1S/C15H24/c1-11(2)6-5-7-13(4)15-9-8-12(3)14(15)10-15/h6,8,13-14H,5,7,9-10H2,1-4H3/t13-,14+,15+/m1/s1

>  <InChI-Key>
UCQHFDKBUHCAFR-ILXRZTDVSA-N

>  <Smiles>
C[C@H](CCC=C(C)C)[C@]1(C2)[C@@H]2C(C)=CC1

>  <Molecular Formula>
C15H24

$$$$
beta-copaene
Actelion Java MolfileCreator 2.0

  0  0  0  0  0  0              0 V3000
M  V30 BEGIN CTAB
M  V30 COUNTS 15 17 0 0 0
M  V30 BEGIN ATOM
M  V30 1 C 0.0 0.0 0.0 0
M  V30 2 C -0.0559 1.5255 0.0 0
M  V30 3 C -1.2736 -1.1196 0.0 0 CFG=1
M  V30 4 C 1.0776 -1.0356 0.0 0
M  V30 5 C -1.8334 -0.3638 0.0 0 CFG=1
M  V30 6 C -2.3512 -2.3792 0.0 0
M  V30 7 C 0.4898 -2.3233 0.0 0
M  V30 8 C -1.1336 -2.1273 0.0 0 CFG=2
M  V30 9 C -3.317 0.2239 0.0 0
M  V30 10 C -1.0216 0.8677 0.0 0
M  V30 11 C -3.8488 -2.2393 0.0 0 CFG=1
M  V30 12 C -4.3946 -0.8537 0.0 0
M  V30 13 C -4.7725 -3.3729 0.0 0
M  V30 14 C -4.2547 -4.6745 0.0 0
M  V30 15 C -6.2981 -3.149 0.0 0
M  V30 END ATOM
M  V30 BEGIN BOND
M  V30 1 2 1 2
M  V30 2 1 3 1 CFG=3
M  V30 3 1 1 4
M  V30 4 1 3 5
M  V30 5 1 3 6
M  V30 6 1 4 7
M  V30 7 1 5 8
M  V30 8 1 5 9
M  V30 9 1 5 10 CFG=3
M  V30 10 1 6 11
M  V30 11 1 9 12
M  V30 12 1 11 13 CFG=3
M  V30 13 1 13 14
M  V30 14 1 13 15
M  V30 15 1 6 8
M  V30 16 1 8 7 CFG=1
M  V30 17 1 11 12
M  V30 END BOND
M  V30 BEGIN COLLECTION
M  V30 MDLV30/STEABS ATOMS=(4 3 5 8 11)
M  V30 END COLLECTION
M  V30 END CTAB
M  END
>  <Molecule Name>
beta-copaene

>  <Molecule Name 2>
beta-copaene

>  <Database>
Essential Oil Database

>  <InChI>
InChI=1S/C15H24/c1-9(2)11-7-8-15(4)12-6-5-10(3)14(15)13(11)12/h9,11-14H,3,5-8H2,1-2,4H3/t11-,12-,13?,14+,15+/m0/s1

>  <InChI-Key>
UPVZPMJSRSWJHQ-IFCUCYEUSA-N

>  <Smiles>
CC(C)[C@H](CC[C@]1(C)[C@H]2CC3)C2[C@H]1C3=C

>  <Molecular Formula>
C15H24

$$$$
alpha-copaene
Actelion Java MolfileCreator 2.0

  0  0  0  0  0  0              0 V3000
M  V30 BEGIN CTAB
M  V30 COUNTS 15 17 0 0 0
M  V30 BEGIN ATOM
M  V30 1 C 0.0 0.0 0.0 0
M  V30 2 C 1.0747 -1.0253 0.0 0
M  V30 3 C -1.2477 -1.1118 0.0 0
M  V30 4 C -0.0494 1.5195 0.0 0
M  V30 5 C 0.457 -2.3101 0.0 0
M  V30 6 C -1.8407 -0.3212 0.0 0 CFG=1
M  V30 7 C -2.2978 -2.3719 0.0 0
M  V30 8 C -1.1242 -2.1001 0.0 0
M  V30 9 C -3.3232 0.2964 0.0 0
M  V30 10 C -1.0006 0.8894 0.0 0
M  V30 11 C -3.7926 -2.236 0.0 0
M  V30 12 C -4.3732 -0.7659 0.0 0
M  V30 13 C -4.7068 -3.3602 0.0 0
M  V30 14 C -4.1509 -4.6574 0.0 0
M  V30 15 C -6.2263 -3.1379 0.0 0
M  V30 END ATOM
M  V30 BEGIN BOND
M  V30 1 2 1 2
M  V30 2 1 1 3
M  V30 3 1 1 4
M  V30 4 1 2 5
M  V30 5 1 3 6
M  V30 6 1 3 7
M  V30 7 1 5 8
M  V30 8 1 6 9
M  V30 9 1 6 10 CFG=3
M  V30 10 1 7 11
M  V30 11 1 9 12
M  V30 12 1 11 13
M  V30 13 1 13 14
M  V30 14 1 13 15
M  V30 15 1 6 8
M  V30 16 1 7 8
M  V30 17 1 11 12
M  V30 END BOND
M  V30 BEGIN COLLECTION
M  V30 MDLV30/STEABS ATOMS=(1 6)
M  V30 END COLLECTION
M  V30 END CTAB
M  END
>  <Molecule Name>
alpha-copaene

>  <Molecule Name 2>
alpha-copaene

>  <Database>
Essential Oil Database

>  <InChI>
InChI=1S/C15H24/c1-9(2)11-7-8-15(4)12-6-5-10(3)14(15)13(11)12/h5,9,11-14H,6-8H2,1-4H3/t11?,12?,13?,14?,15-/m1/s1

>  <InChI-Key>
VLXDPFLIRFYIME-ZPWMNFGTSA-N

>  <Smiles>
CC(C)C1C2C3C(C)=CCC2[C@@]3(C)CC1

>  <Molecular Formula>
C15H24

$$$$
gamma-cadinene
Actelion Java MolfileCreator 2.0

  0  0  0  0  0  0              0 V3000
M  V30 BEGIN CTAB
M  V30 COUNTS 15 16 0 0 0
M  V30 BEGIN ATOM
M  V30 1 C 0.0 0.0 0.0 0
M  V30 2 C -0.0494 1.5809 0.0 0
M  V30 3 C 1.2721 -0.7286 0.0 0 CFG=2
M  V30 4 C -1.3709 -0.7286 0.0 0
M  V30 5 C 1.2227 -2.2107 0.0 0 CFG=2
M  V30 6 C 2.5442 0.0617 0.0 0
M  V30 7 C -1.4203 -2.2107 0.0 0
M  V30 8 C 2.4948 -2.9518 0.0 0
M  V30 9 C -0.1482 -2.9518 0.0 0 CFG=2
M  V30 10 C 3.8163 -0.6669 0.0 0
M  V30 11 C 3.7669 -2.1366 0.0 0
M  V30 12 C -0.1976 -4.4339 0.0 0
M  V30 13 C 5.0391 -2.8777 0.0 0
M  V30 14 C 1.0745 -5.1749 0.0 0
M  V30 15 C -1.5685 -5.1749 0.0 0
M  V30 END ATOM
M  V30 BEGIN BOND
M  V30 1 2 1 2
M  V30 2 1 1 3
M  V30 3 1 1 4
M  V30 4 1 3 5
M  V30 5 1 3 6 CFG=1
M  V30 6 1 4 7
M  V30 7 1 5 8 CFG=3
M  V30 8 1 5 9
M  V30 9 1 6 10
M  V30 10 2 8 11
M  V30 11 1 9 12 CFG=1
M  V30 12 1 11 13
M  V30 13 1 12 14
M  V30 14 1 12 15
M  V30 15 1 7 9
M  V30 16 1 10 11
M  V30 END BOND
M  V30 BEGIN COLLECTION
M  V30 MDLV30/STEABS ATOMS=(3 3 5 9)
M  V30 END COLLECTION
M  V30 END CTAB
M  END
>  <Molecule Name>
gamma-cadinene

>  <Molecule Name 2>
gamma-cadinene

>  <Database>
Essential Oil Database

>  <InChI>
InChI=1S/C15H24/c1-10(2)13-8-6-12(4)14-7-5-11(3)9-15(13)14/h9-10,13-15H,4-8H2,1-3H3/t13-,14-,15-/m1/s1

>  <InChI-Key>
WRHGORWNJGOVQY-RBSFLKMASA-N

>  <Smiles>
CC(C)[C@@H](CC1)[C@H]2C=C(C)CC[C@@H]2C1=C

>  <Molecular Formula>
C15H24

$$$$
alpha-bulnesene
Actelion Java MolfileCreator 2.0

  0  0  0  0  0  0              0 V3000
M  V30 BEGIN CTAB
M  V30 COUNTS 15 16 0 0 0
M  V30 BEGIN ATOM
M  V30 1 C 0.0 0.0 0.0 0
M  V30 2 C -1.2305 -0.896 0.0 0
M  V30 3 C 1.4336 -0.2867 0.0 0
M  V30 4 C -0.3823 1.5292 0.0 0
M  V30 5 C -1.2783 -2.3655 0.0 0 CFG=2
M  V30 6 C -2.7239 -0.3823 0.0 0
M  V30 7 C 2.0429 -1.6009 0.0 0
M  V30 8 C -2.7717 -2.7837 0.0 0 CFG=2
M  V30 9 C -0.1433 -3.2616 0.0 0
M  V30 10 C -3.6678 -1.565 0.0 0
M  V30 11 C 1.338 -2.9151 0.0 0 CFG=2
M  V30 12 C -3.2854 -4.1815 0.0 0
M  V30 13 C 2.2341 -4.0501 0.0 0
M  V30 14 C 1.6367 -5.4121 0.0 0
M  V30 15 C 3.6917 -3.7753 0.0 0
M  V30 END ATOM
M  V30 BEGIN BOND
M  V30 1 2 1 2
M  V30 2 1 1 3
M  V30 3 1 1 4
M  V30 4 1 2 5
M  V30 5 1 2 6
M  V30 6 1 3 7
M  V30 7 1 5 8
M  V30 8 1 5 9 CFG=1
M  V30 9 1 6 10
M  V30 10 1 7 11
M  V30 11 1 8 12 CFG=1
M  V30 12 1 11 13 CFG=1
M  V30 13 2 13 14
M  V30 14 1 13 15
M  V30 15 1 8 10
M  V30 16 1 9 11
M  V30 END BOND
M  V30 BEGIN COLLECTION
M  V30 MDLV30/STEABS ATOMS=(3 5 8 11)
M  V30 END COLLECTION
M  V30 END CTAB
M  END
>  <Molecule Name>
alpha-bulnesene

>  <Molecule Name 2>
alpha-bulnesene

>  <Database>
Essential Oil Database

>  <InChI>
InChI=1S/C15H24/c1-10(2)13-7-5-11(3)14-8-6-12(4)15(14)9-13/h12-13,15H,1,5-9H2,2-4H3/t12-,13+,15-/m0/s1

>  <InChI-Key>
YHAJBLWYOIUHHM-GUTXKFCHSA-N

>  <Smiles>
C[C@@H](CC1)[C@H](C2)C1=C(C)CC[C@H]2C(C)=C

>  <Molecular Formula>
C15H24

$$$$
globulol
Actelion Java MolfileCreator 2.0

  0  0  0  0  0  0              0 V3000
M  V30 BEGIN CTAB
M  V30 COUNTS 16 18 0 0 0
M  V30 BEGIN ATOM
M  V30 1 O 0.0 0.0 0.0 0
M  V30 2 C -1.4817 -0.4129 0.0 0
M  V30 3 C -1.0323 -1.7853 0.0 0 CFG=1
M  V30 4 C -2.9512 0.1578 0.0 0
M  V30 5 C -1.0444 1.0687 0.0 0
M  V30 6 C -1.8825 -2.9998 0.0 0
M  V30 7 C 0.3765 -2.1254 0.0 0
M  V30 8 C -4.2751 -0.5829 0.0 0
M  V30 9 C -0.9837 -4.105 0.0 0 CFG=1
M  V30 10 C -3.437 -3.1091 0.0 0
M  V30 11 C 0.425 -3.5828 0.0 0
M  V30 12 C -4.5058 -2.0282 0.0 0
M  V30 13 C -1.4209 -5.5139 0.0 0
M  V30 14 C -4.943 -3.4492 0.0 0
M  V30 15 C -6.4733 -3.6557 0.0 0
M  V30 16 C -5.271 -4.8823 0.0 0
M  V30 END ATOM
M  V30 BEGIN BOND
M  V30 1 1 1 2
M  V30 2 1 3 2 CFG=3
M  V30 3 1 2 4
M  V30 4 1 2 5
M  V30 5 1 3 6
M  V30 6 1 3 7
M  V30 7 1 4 8
M  V30 8 1 6 9
M  V30 9 1 6 10
M  V30 10 1 7 11
M  V30 11 1 8 12
M  V30 12 1 9 13 CFG=1
M  V30 13 1 10 14
M  V30 14 1 14 15
M  V30 15 1 14 16
M  V30 16 1 9 11
M  V30 17 1 10 12
M  V30 18 1 12 14
M  V30 END BOND
M  V30 BEGIN COLLECTION
M  V30 MDLV30/STEABS ATOMS=(2 3 9)
M  V30 END COLLECTION
M  V30 END CTAB
M  END
>  <Molecule Name>
globulol

>  <Molecule Name 2>
globulol

>  <Database>
Essential Oil Database

>  <InChI>
InChI=1S/C15H26O/c1-9-5-6-10-12(9)13-11(14(13,2)3)7-8-15(10,4)16/h9-13,16H,5-8H2,1-4H3/t9-,10-,11?,12?,13?,15?/m1/s1

>  <InChI-Key>
AYXPYQRXGNDJFU-KUWSCQPZSA-N

>  <Smiles>
C[C@H](CC1)C(C2C(C)(C)C2CC2)[C@@H]1C2(C)O

>  <Molecular Formula>
C15H26O

$$$$
beta-selinene
Actelion Java MolfileCreator 2.0

  0  0  0  0  0  0              0 V3000
M  V30 BEGIN CTAB
M  V30 COUNTS 15 16 0 0 0
M  V30 BEGIN ATOM
M  V30 1 C 0.0 0.0 0.0 0
M  V30 2 C -0.0476 -1.428 0.0 0
M  V30 3 C -1.3209 0.7735 0.0 0 CFG=1
M  V30 4 C 1.2257 0.7735 0.0 0
M  V30 5 C -1.3685 2.2967 0.0 0 CFG=1
M  V30 6 C -2.6419 0.0714 0.0 0
M  V30 7 C 1.1781 2.2967 0.0 0
M  V30 8 C -2.6895 3.0703 0.0 0
M  V30 9 C -0.1428 3.0703 0.0 0
M  V30 10 C -1.4161 3.82 0.0 0
M  V30 11 C -3.9628 0.8449 0.0 0 CFG=1
M  V30 12 C -4.0104 2.3682 0.0 0
M  V30 13 C -5.2838 0.1309 0.0 0
M  V30 14 C -6.6047 0.9044 0.0 0
M  V30 15 C -5.3314 -1.2971 0.0 0
M  V30 END ATOM
M  V30 BEGIN BOND
M  V30 1 2 1 2
M  V30 2 1 1 3
M  V30 3 1 1 4
M  V30 4 1 3 5
M  V30 5 1 3 6 CFG=3
M  V30 6 1 4 7
M  V30 7 1 5 8
M  V30 8 1 5 9
M  V30 9 1 5 10 CFG=3
M  V30 10 1 6 11
M  V30 11 1 8 12
M  V30 12 1 11 13 CFG=3
M  V30 13 2 13 14
M  V30 14 1 13 15
M  V30 15 1 7 9
M  V30 16 1 11 12
M  V30 END BOND
M  V30 BEGIN COLLECTION
M  V30 MDLV30/STEABS ATOMS=(3 3 5 11)
M  V30 END COLLECTION
M  V30 END CTAB
M  END
>  <Molecule Name>
beta-selinene

>  <Molecule Name 2>
beta-selinene

>  <Database>
Essential Oil Database

>  <InChI>
InChI=1S/C15H24/c1-11(2)13-7-9-15(4)8-5-6-12(3)14(15)10-13/h13-14H,1,3,5-10H2,2,4H3/t13-,14+,15-/m1/s1

>  <InChI-Key>
YOVSPTNQHMDJAG-QLFBSQMISA-N

>  <Smiles>
C[C@@](CCC1)(CC[C@H](C2)C(C)=C)[C@@H]2C1=C

>  <Molecular Formula>
C15H24

$$$$
alpha-selinene
Actelion Java MolfileCreator 2.0

  0  0  0  0  0  0              0 V3000
M  V30 BEGIN CTAB
M  V30 COUNTS 15 16 0 0 0
M  V30 BEGIN ATOM
M  V30 1 C 0.0 0.0 0.0 0
M  V30 2 C 1.2257 0.7735 0.0 0
M  V30 3 C -1.3209 0.7735 0.0 0 CFG=1
M  V30 4 C -0.0476 -1.428 0.0 0
M  V30 5 C 1.1781 2.2967 0.0 0
M  V30 6 C -1.3685 2.2967 0.0 0 CFG=2
M  V30 7 C -2.6419 0.0714 0.0 0
M  V30 8 C -0.1428 3.0703 0.0 0
M  V30 9 C -2.6895 3.0703 0.0 0
M  V30 10 C -1.4161 3.82 0.0 0
M  V30 11 C -3.9628 0.8449 0.0 0 CFG=1
M  V30 12 C -4.0104 2.3682 0.0 0
M  V30 13 C -5.2838 0.1309 0.0 0
M  V30 14 C -6.6047 0.9044 0.0 0
M  V30 15 C -5.3314 -1.2971 0.0 0
M  V30 END ATOM
M  V30 BEGIN BOND
M  V30 1 2 1 2
M  V30 2 1 1 3
M  V30 3 1 1 4
M  V30 4 1 2 5
M  V30 5 1 3 6
M  V30 6 1 3 7 CFG=3
M  V30 7 1 5 8
M  V30 8 1 6 9
M  V30 9 1 6 10 CFG=3
M  V30 10 1 7 11
M  V30 11 1 9 12
M  V30 12 1 11 13 CFG=3
M  V30 13 2 13 14
M  V30 14 1 13 15
M  V30 15 1 6 8
M  V30 16 1 11 12
M  V30 END BOND
M  V30 BEGIN COLLECTION
M  V30 MDLV30/STEABS ATOMS=(3 3 6 11)
M  V30 END COLLECTION
M  V30 END CTAB
M  END
>  <Molecule Name>
alpha-selinene

>  <Molecule Name 2>
alpha-selinene

>  <Database>
Essential Oil Database

>  <InChI>
InChI=1S/C15H24/c1-11(2)13-7-9-15(4)8-5-6-12(3)14(15)10-13/h6,13-14H,1,5,7-10H2,2-4H3/t13-,14+,15-/m1/s1

>  <InChI-Key>
OZQAPQSEYFAMCY-QLFBSQMISA-N

>  <Smiles>
C[C@@]1(CC[C@H](C2)C(C)=C)[C@@H]2C(C)=CCC1

>  <Molecular Formula>
C15H24

$$$$
alpha-phellandrene
Actelion Java MolfileCreator 2.0

  0  0  0  0  0  0              0 V3000
M  V30 BEGIN CTAB
M  V30 COUNTS 10 10 0 0 0
M  V30 BEGIN ATOM
M  V30 1 C 0.0 0.0 0.0 0
M  V30 2 C -1.3261 0.7765 0.0 0
M  V30 3 C 1.2305 0.7765 0.0 0
M  V30 4 C -0.0477 -1.4336 0.0 0
M  V30 5 C -1.3739 2.3057 0.0 0
M  V30 6 C 1.1827 2.3057 0.0 0
M  V30 7 C -0.1433 3.0823 0.0 0 CFG=1
M  V30 8 C -0.1911 4.6115 0.0 0
M  V30 9 C -1.5172 5.3881 0.0 0
M  V30 10 C 1.0393 5.3881 0.0 0
M  V30 END ATOM
M  V30 BEGIN BOND
M  V30 1 1 1 2
M  V30 2 2 1 3
M  V30 3 1 1 4
M  V30 4 2 2 5
M  V30 5 1 3 6
M  V30 6 1 5 7
M  V30 7 1 7 8 CFG=3
M  V30 8 1 8 9
M  V30 9 1 8 10
M  V30 10 1 6 7
M  V30 END BOND
M  V30 BEGIN COLLECTION
M  V30 MDLV30/STERAC1 ATOMS=(1 7)
M  V30 END COLLECTION
M  V30 END CTAB
M  END
>  <Molecule Name>
alpha-phellandrene

>  <Molecule Name 2>
alpha-phellandrene

>  <Database>
Essential Oil Database

>  <InChI>
InChI=1S/C10H16/c1-8(2)10-6-4-9(3)5-7-10/h4-6,8,10H,7H2,1-3H3/t10-/m0/s1

>  <InChI-Key>
OGLDWXZKYODSOB-JTQLQIEISA-N

>  <Smiles>
CC(C)C1C=CC(C)=CC1

>  <Molecular Formula>
C10H16

$$$$
rosefuran
Actelion Java MolfileCreator 2.0

  0  0  0  0  0  0              0 V3000
M  V30 BEGIN CTAB
M  V30 COUNTS 11 11 0 0 0
M  V30 BEGIN ATOM
M  V30 1 O 0.0 0.0 0.0 0
M  V30 2 C 1.1646 0.9219 0.0 0
M  V30 3 C 0.4246 -1.3829 0.0 0
M  V30 4 C 2.3292 0.097 0.0 0
M  V30 5 C 1.1161 2.4748 0.0 0
M  V30 6 C 1.8803 -1.3344 0.0 0
M  V30 7 C 3.7122 0.6187 0.0 0
M  V30 8 C -0.2304 3.2633 0.0 0
M  V30 9 C -0.279 4.8162 0.0 0
M  V30 10 C -1.6256 5.6047 0.0 0
M  V30 11 C 0.9705 5.6047 0.0 0
M  V30 END ATOM
M  V30 BEGIN BOND
M  V30 1 1 1 2
M  V30 2 1 1 3
M  V30 3 2 2 4
M  V30 4 1 2 5
M  V30 5 2 3 6
M  V30 6 1 4 7
M  V30 7 1 5 8
M  V30 8 2 8 9
M  V30 9 1 9 10
M  V30 10 1 9 11
M  V30 11 1 4 6
M  V30 END BOND
M  V30 END CTAB
M  END
>  <Molecule Name>
rosefuran

>  <Molecule Name 2>
rosefuran

>  <Database>
Essential Oil Database

>  <InChI>
InChI=1S/C10H14O/c1-8(2)4-5-10-9(3)6-7-11-10/h4,6-7H,5H2,1-3H3

>  <InChI-Key>
UTSGPHXOHJSDBC-UHFFFAOYSA-N

>  <Smiles>
CC(C)=CCc1c(C)cc[o]1

>  <Molecular Formula>
C10H14O

$$$$
allo-ocimene
Actelion Java MolfileCreator 2.0

  0  0  0  0  0  0              0 V3000
M  V30 BEGIN CTAB
M  V30 COUNTS 10 9 0 0 0
M  V30 BEGIN ATOM
M  V30 1 C 0.0 0.0 0.0 0
M  V30 2 C -0.7694 -1.2382 0.0 0
M  V30 3 C 1.4426 0.048 0.0 0
M  V30 4 C -0.7694 1.3344 0.0 0
M  V30 5 C -2.3082 -1.1901 0.0 0
M  V30 6 C 2.1639 1.3825 0.0 0
M  V30 7 C -3.0896 -2.4284 0.0 0
M  V30 8 C -4.6284 -2.3803 0.0 0
M  V30 9 C -5.3978 -3.6185 0.0 0
M  V30 10 C -5.3978 -1.0459 0.0 0
M  V30 END ATOM
M  V30 BEGIN BOND
M  V30 1 1 1 2
M  V30 2 2 1 3
M  V30 3 1 1 4
M  V30 4 2 2 5
M  V30 5 1 3 6
M  V30 6 1 5 7
M  V30 7 2 7 8
M  V30 8 1 8 9
M  V30 9 1 8 10
M  V30 END BOND
M  V30 END CTAB
M  END
>  <Molecule Name>
allo-ocimene

>  <Molecule Name 2>
allo-ocimene

>  <Database>
Essential Oil Database

>  <InChI>
InChI=1S/C10H16/c1-5-10(4)8-6-7-9(2)3/h5-8H,1-4H3/b8-6+,10-5+

>  <InChI-Key>
GQVMHMFBVWSSPF-SOYUKNQTSA-N

>  <Smiles>
C/C=C(\C)/C=C/C=C(C)C

>  <Molecular Formula>
C10H16

$$$$
alpha-terpineol
Actelion Java MolfileCreator 2.0

  0  0  0  0  0  0              0 V3000
M  V30 BEGIN CTAB
M  V30 COUNTS 11 11 0 0 0
M  V30 BEGIN ATOM
M  V30 1 O 0.0 0.0 0.0 0
M  V30 2 C -1.5213 0.0475 0.0 0
M  V30 3 C -1.5688 1.5688 0.0 0 CFG=2
M  V30 4 C -1.5688 -1.3787 0.0 0
M  V30 5 C -3.0426 0.095 0.0 0
M  V30 6 C -0.3446 2.3295 0.0 0
M  V30 7 C -2.8881 2.3295 0.0 0
M  V30 8 C -0.3922 3.8508 0.0 0
M  V30 9 C -2.9356 3.8508 0.0 0
M  V30 10 C -1.7114 4.6234 0.0 0
M  V30 11 C -1.759 6.1447 0.0 0
M  V30 END ATOM
M  V30 BEGIN BOND
M  V30 1 1 1 2
M  V30 2 1 3 2 CFG=1
M  V30 3 1 2 4
M  V30 4 1 2 5
M  V30 5 1 3 6
M  V30 6 1 3 7
M  V30 7 1 6 8
M  V30 8 1 7 9
M  V30 9 2 8 10
M  V30 10 1 10 11
M  V30 11 1 9 10
M  V30 END BOND
M  V30 BEGIN COLLECTION
M  V30 MDLV30/STERAC1 ATOMS=(1 3)
M  V30 END COLLECTION
M  V30 END CTAB
M  END
>  <Molecule Name>
alpha-terpineol

>  <Molecule Name 2>
alpha-terpineol

>  <Database>
Essential Oil Database

>  <InChI>
InChI=1S/C10H18O/c1-8-4-6-9(7-5-8)10(2,3)11/h4,9,11H,5-7H2,1-3H3/t9-/m1/s1

>  <InChI-Key>
WUOACPNHFRMFPN-SECBINFHSA-N

>  <Smiles>
CC(C)(C1CC=C(C)CC1)O

>  <Molecular Formula>
C10H18O

$$$$
beta-cyclocitral
Actelion Java MolfileCreator 2.0

  0  0  0  0  0  0              0 V3000
M  V30 BEGIN CTAB
M  V30 COUNTS 11 11 0 0 0
M  V30 BEGIN ATOM
M  V30 1 O 0.0 0.0 0.0 0
M  V30 2 C -0.0466 -1.4706 0.0 0
M  V30 3 C 1.2255 -2.1825 0.0 0
M  V30 4 C 1.1788 -3.6532 0.0 0
M  V30 5 C 2.4977 -1.3655 0.0 0
M  V30 6 C 2.451 -4.3651 0.0 0
M  V30 7 C -0.1867 -4.3651 0.0 0
M  V30 8 C 3.7699 -2.0542 0.0 0
M  V30 9 C 1.4589 -0.1517 0.0 0
M  V30 10 C 3.4431 -0.1517 0.0 0
M  V30 11 C 3.7232 -3.5481 0.0 0
M  V30 END ATOM
M  V30 BEGIN BOND
M  V30 1 2 1 2
M  V30 2 1 2 3
M  V30 3 2 3 4
M  V30 4 1 3 5
M  V30 5 1 4 6
M  V30 6 1 4 7
M  V30 7 1 5 8
M  V30 8 1 5 9
M  V30 9 1 5 10
M  V30 10 1 6 11
M  V30 11 1 8 11
M  V30 END BOND
M  V30 END CTAB
M  END
>  <Molecule Name>
beta-cyclocitral

>  <Molecule Name 2>
beta-cyclocitral

>  <Database>
Essential Oil Database

>  <InChI>
InChI=1S/C10H16O/c1-8-5-4-6-10(2,3)9(8)7-11/h7H,4-6H2,1-3H3

>  <InChI-Key>
MOQGCGNUWBPGTQ-UHFFFAOYSA-N

>  <Smiles>
CC1(C)C(C=O)=C(C)CCC1

>  <Molecular Formula>
C10H16O

$$$$
trans-caryophyllene
Actelion Java MolfileCreator 2.0

  0  0  0  0  0  0              0 V3000
M  V30 BEGIN CTAB
M  V30 COUNTS 15 16 0 0 0
M  V30 BEGIN ATOM
M  V30 1 C 0.0 0.0 0.0 0
M  V30 2 C -0.7648 -1.2548 0.0 0
M  V30 3 C -1.0158 1.1472 0.0 0 CFG=2
M  V30 4 C 1.4221 -0.1792 0.0 0
M  V30 5 C -1.0994 2.6769 0.0 0 CFG=2
M  V30 6 C -2.5455 1.1592 0.0 0
M  V30 7 C 2.6291 0.6214 0.0 0
M  V30 8 C -2.6291 2.6889 0.0 0
M  V30 9 C -0.239 3.872 0.0 0
M  V30 10 C 3.0593 2.0794 0.0 0
M  V30 11 C -4.1588 2.7008 0.0 0
M  V30 12 C -2.7128 4.2186 0.0 0
M  V30 13 C 1.1592 4.2186 0.0 0
M  V30 14 C 1.7089 2.8562 0.0 0
M  V30 15 C 0.5616 1.936 0.0 0
M  V30 END ATOM
M  V30 BEGIN BOND
M  V30 1 2 1 2
M  V30 2 1 3 1 CFG=1
M  V30 3 1 1 4
M  V30 4 1 3 5
M  V30 5 1 3 6
M  V30 6 1 4 7
M  V30 7 1 5 8
M  V30 8 1 5 9 CFG=3
M  V30 9 1 7 10
M  V30 10 1 8 11
M  V30 11 1 8 12
M  V30 12 1 9 13
M  V30 13 2 10 14
M  V30 14 1 14 15
M  V30 15 1 6 8
M  V30 16 1 13 14
M  V30 END BOND
M  V30 BEGIN COLLECTION
M  V30 MDLV30/STEABS ATOMS=(2 3 5)
M  V30 END COLLECTION
M  V30 END CTAB
M  END
>  <Molecule Name>
trans-caryophyllene

>  <Molecule Name 2>
trans-caryophyllene

>  <Database>
Essential Oil Database

>  <InChI>
InChI=1S/C15H24/c1-11-6-5-7-12(2)13-10-15(3,4)14(13)9-8-11/h6,13-14H,2,5,7-10H2,1,3-4H3/b11-6-/t13-,14-/m1/s1

>  <InChI-Key>
NPNUFJAVOOONJE-FLFDDASRSA-N

>  <Smiles>
CC(C)(C1)[C@H](CC/C(\C)=C/CC2)[C@H]1C2=C

>  <Molecular Formula>
C15H24

$$$$
alpha-guaiene
Actelion Java MolfileCreator 2.0

  0  0  0  0  0  0              0 V3000
M  V30 BEGIN CTAB
M  V30 COUNTS 15 16 0 0 0
M  V30 BEGIN ATOM
M  V30 1 C 0.0 0.0 0.0 0
M  V30 2 C -0.0463 -1.4592 0.0 0
M  V30 3 C -1.4824 0.498 0.0 0 CFG=2
M  V30 4 C 1.1349 0.996 0.0 0
M  V30 5 C 1.0886 -2.3626 0.0 0 CFG=2
M  V30 6 C -1.5287 -1.8646 0.0 0
M  V30 7 C -2.4321 -0.6833 0.0 0
M  V30 8 C -1.9804 1.9804 0.0 0
M  V30 9 C 2.5595 0.718 0.0 0 CFG=2
M  V30 10 C 2.5131 -1.992 0.0 0
M  V30 11 C 0.718 -3.7871 0.0 0
M  V30 12 C 3.4628 1.9456 0.0 0
M  V30 13 C 3.1501 -0.5906 0.0 0
M  V30 14 C 4.9105 1.7719 0.0 0
M  V30 15 C 2.8837 3.3933 0.0 0
M  V30 END ATOM
M  V30 BEGIN BOND
M  V30 1 2 1 2
M  V30 2 1 1 3
M  V30 3 1 1 4
M  V30 4 1 2 5
M  V30 5 1 2 6
M  V30 6 1 3 7
M  V30 7 1 3 8 CFG=3
M  V30 8 1 4 9
M  V30 9 1 5 10
M  V30 10 1 5 11 CFG=3
M  V30 11 1 9 12 CFG=3
M  V30 12 1 9 13
M  V30 13 2 12 14
M  V30 14 1 12 15
M  V30 15 1 6 7
M  V30 16 1 10 13
M  V30 END BOND
M  V30 BEGIN COLLECTION
M  V30 MDLV30/STEABS ATOMS=(3 3 5 9)
M  V30 END COLLECTION
M  V30 END CTAB
M  END
>  <Molecule Name>
alpha-guaiene

>  <Molecule Name 2>
alpha-guaiene

>  <Database>
Essential Oil Database

>  <InChI>
InChI=1S/C15H24/c1-10(2)13-7-5-11(3)14-8-6-12(4)15(14)9-13/h11-13H,1,5-9H2,2-4H3/t11-,12-,13+/m0/s1

>  <InChI-Key>
ADIDQIZBYUABQK-RWMBFGLXSA-N

>  <Smiles>
C[C@@H](CC1)C(C2)=C1[C@@H](C)CC[C@H]2C(C)=C

>  <Molecular Formula>
C15H24

$$$$
delta-selinene
Actelion Java MolfileCreator 2.0

  0  0  0  0  0  0              0 V3000
M  V30 BEGIN CTAB
M  V30 COUNTS 15 16 0 0 0
M  V30 BEGIN ATOM
M  V30 1 C 0.0 0.0 0.0 0
M  V30 2 C 1.2482 0.7756 0.0 0
M  V30 3 C -1.3452 0.7756 0.0 0
M  V30 4 C -0.0484 -1.4542 0.0 0 CFG=2
M  V30 5 C 2.4965 0.0605 0.0 0
M  V30 6 C 1.1997 2.3268 0.0 0
M  V30 7 C -2.6904 0.0605 0.0 0
M  V30 8 C -1.3937 -2.1814 0.0 0
M  V30 9 C 1.1997 -2.1814 0.0 0
M  V30 10 C -0.0969 -2.9085 0.0 0
M  V30 11 C 2.448 -1.3937 0.0 0
M  V30 12 C -4.0356 0.8483 0.0 0
M  V30 13 C -2.7389 -1.3937 0.0 0
M  V30 14 C -5.3809 0.1333 0.0 0
M  V30 15 C -4.0841 2.3995 0.0 0
M  V30 END ATOM
M  V30 BEGIN BOND
M  V30 1 2 1 2
M  V30 2 1 1 3
M  V30 3 1 1 4
M  V30 4 1 2 5
M  V30 5 1 2 6
M  V30 6 2 3 7
M  V30 7 1 4 8
M  V30 8 1 4 9
M  V30 9 1 4 10 CFG=3
M  V30 10 1 5 11
M  V30 11 1 7 12
M  V30 12 1 7 13
M  V30 13 1 12 14
M  V30 14 1 12 15
M  V30 15 1 8 13
M  V30 16 1 9 11
M  V30 END BOND
M  V30 BEGIN COLLECTION
M  V30 MDLV30/STERAC1 ATOMS=(1 4)
M  V30 END COLLECTION
M  V30 END CTAB
M  END
>  <Molecule Name>
delta-selinene

>  <Molecule Name 2>
delta-selinene

>  <Database>
Essential Oil Database

>  <InChI>
InChI=1S/C15H24/c1-11(2)13-7-9-15(4)8-5-6-12(3)14(15)10-13/h10-11H,5-9H2,1-4H3/t15-/m0/s1

>  <InChI-Key>
VEGYMPQCXPVQJY-HNNXBMFYSA-N

>  <Smiles>
CC(C)C1=CC2=C(C)CCCC2(C)CC1

>  <Molecular Formula>
C15H24

$$$$
myristicin
Actelion Java MolfileCreator 2.0

  0  0  0  0  0  0              0 V3000
M  V30 BEGIN CTAB
M  V30 COUNTS 14 15 0 0 0
M  V30 BEGIN ATOM
M  V30 1 O 0.0 0.0 0.0 0
M  V30 2 C 1.4111 -0.4332 0.0 0
M  V30 3 C -0.9407 -1.1882 0.0 0
M  V30 4 C 2.686 0.3589 0.0 0
M  V30 5 C 1.3615 -1.9186 0.0 0
M  V30 6 O -0.099 -2.3765 0.0 0
M  V30 7 O 2.6365 1.9433 0.0 0
M  V30 8 C 3.9609 -0.3713 0.0 0
M  V30 9 C 2.6365 -2.6489 0.0 0
M  V30 10 C 1.2625 2.7479 0.0 0
M  V30 11 C 3.9114 -1.8567 0.0 0
M  V30 12 C 5.1864 -2.587 0.0 0
M  V30 13 C 5.1369 -4.0723 0.0 0
M  V30 14 C 6.4118 -4.815 0.0 0
M  V30 END ATOM
M  V30 BEGIN BOND
M  V30 1 1 1 2
M  V30 2 1 1 3
M  V30 3 2 2 4
M  V30 4 1 2 5
M  V30 5 1 3 6
M  V30 6 1 4 7
M  V30 7 1 4 8
M  V30 8 2 5 9
M  V30 9 1 7 10
M  V30 10 2 8 11
M  V30 11 1 11 12
M  V30 12 1 12 13
M  V30 13 2 13 14
M  V30 14 1 5 6
M  V30 15 1 9 11
M  V30 END BOND
M  V30 END CTAB
M  END
>  <Molecule Name>
myristicin

>  <Molecule Name 2>
myristicin

>  <Database>
Essential Oil Database

>  <InChI>
InChI=1S/C11H12O3/c1-3-4-8-5-9(12-2)11-10(6-8)13-7-14-11/h3,5-6H,1,4,7H2,2H3

>  <InChI-Key>
BNWJOHGLIBDBOB-UHFFFAOYSA-N

>  <Smiles>
COc1c2OCOc2cc(CC=C)c1

>  <Molecular Formula>
C11H12O3

$$$$
guaiol
Actelion Java MolfileCreator 2.0

  0  0  0  0  0  0              0 V3000
M  V30 BEGIN CTAB
M  V30 COUNTS 16 17 0 0 0
M  V30 BEGIN ATOM
M  V30 1 O 0.0 0.0 0.0 0
M  V30 2 C 1.1256 -0.8886 0.0 0
M  V30 3 C 0.1421 -2.0143 0.0 0 CFG=1
M  V30 4 C 2.0143 0.3317 0.0 0
M  V30 5 C 2.2513 -1.7773 0.0 0
M  V30 6 C -1.3745 -1.6351 0.0 0
M  V30 7 C 0.7465 -3.3177 0.0 0
M  V30 8 C -2.5949 -2.5238 0.0 0
M  V30 9 C 0.0473 -4.6212 0.0 0
M  V30 10 C -2.6423 -3.9813 0.0 0
M  V30 11 C -4.0761 -2.0143 0.0 0 CFG=2
M  V30 12 C -1.4693 -4.9055 0.0 0 CFG=1
M  V30 13 C -4.1235 -4.396 0.0 0
M  V30 14 C -5.0122 -3.1874 0.0 0
M  V30 15 C -4.5856 -0.5332 0.0 0
M  V30 16 C -1.8484 -6.3274 0.0 0
M  V30 END ATOM
M  V30 BEGIN BOND
M  V30 1 1 1 2
M  V30 2 1 3 2 CFG=3
M  V30 3 1 2 4
M  V30 4 1 2 5
M  V30 5 1 3 6
M  V30 6 1 3 7
M  V30 7 1 6 8
M  V30 8 1 7 9
M  V30 9 2 8 10
M  V30 10 1 8 11
M  V30 11 1 9 12
M  V30 12 1 10 13
M  V30 13 1 11 14
M  V30 14 1 11 15 CFG=3
M  V30 15 1 12 16 CFG=3
M  V30 16 1 10 12
M  V30 17 1 13 14
M  V30 END BOND
M  V30 BEGIN COLLECTION
M  V30 MDLV30/STEABS ATOMS=(3 3 11 12)
M  V30 END COLLECTION
M  V30 END CTAB
M  END
>  <Molecule Name>
guaiol

>  <Molecule Name 2>
guaiol

>  <Database>
Essential Oil Database

>  <InChI>
InChI=1S/C15H26O/c1-10-5-7-12(15(3,4)16)9-14-11(2)6-8-13(10)14/h10-12,16H,5-9H2,1-4H3/t10-,11-,12+/m0/s1

>  <InChI-Key>
TWVJWDMOZJXUID-SDDRHHMPSA-N

>  <Smiles>
C[C@@H](CC1)C(C2)=C1[C@@H](C)CC[C@H]2C(C)(C)O

>  <Molecular Formula>
C15H26O

$$$$
beta-eudesmol
Actelion Java MolfileCreator 2.0

  0  0  0  0  0  0              0 V3000
M  V30 BEGIN CTAB
M  V30 COUNTS 16 17 0 0 0
M  V30 BEGIN ATOM
M  V30 1 O 0.0 0.0 0.0 0
M  V30 2 C 0.7227 -1.2617 0.0 0
M  V30 3 C 1.9844 -0.4654 0.0 0 CFG=1
M  V30 4 C -0.6369 -1.9967 0.0 0
M  V30 5 C 1.4454 -2.5234 0.0 0
M  V30 6 C 3.2461 -1.2004 0.0 0
M  V30 7 C 1.9354 1.1024 0.0 0
M  V30 8 C 4.5079 -0.4042 0.0 0 CFG=1
M  V30 9 C 3.1971 1.8987 0.0 0
M  V30 10 C 5.7696 -1.1392 0.0 0
M  V30 11 C 4.4589 1.1637 0.0 0 CFG=1
M  V30 12 C 5.7206 -2.6091 0.0 0
M  V30 13 C 7.0313 -0.3429 0.0 0
M  V30 14 C 5.7206 1.9599 0.0 0
M  V30 15 C 4.4099 2.7316 0.0 0
M  V30 16 C 6.9823 1.2249 0.0 0
M  V30 END ATOM
M  V30 BEGIN BOND
M  V30 1 1 1 2
M  V30 2 1 3 2 CFG=3
M  V30 3 1 2 4
M  V30 4 1 2 5
M  V30 5 1 3 6
M  V30 6 1 3 7
M  V30 7 1 8 6 CFG=3
M  V30 8 1 7 9
M  V30 9 1 8 10
M  V30 10 1 8 11
M  V30 11 2 10 12
M  V30 12 1 10 13
M  V30 13 1 11 14
M  V30 14 1 11 15 CFG=3
M  V30 15 1 13 16
M  V30 16 1 9 11
M  V30 17 1 14 16
M  V30 END BOND
M  V30 BEGIN COLLECTION
M  V30 MDLV30/STEABS ATOMS=(3 3 8 11)
M  V30 END COLLECTION
M  V30 END CTAB
M  END
>  <Molecule Name>
beta-eudesmol

>  <Molecule Name 2>
beta-eudesmol

>  <Database>
Essential Oil Database

>  <InChI>
InChI=1S/C15H26O/c1-11-6-5-8-15(4)9-7-12(10-13(11)15)14(2,3)16/h12-13,16H,1,5-10H2,2-4H3/t12-,13+,15-/m1/s1

>  <InChI-Key>
BOPIMTNSYWYZOC-VNHYZAJKSA-N

>  <Smiles>
CC(C)([C@H](CC[C@@]1(C)CCC2)C[C@H]1C2=C)O

>  <Molecular Formula>
C15H26O

$$$$
alpha-eudesmol
Actelion Java MolfileCreator 2.0

  0  0  0  0  0  0              0 V3000
M  V30 BEGIN CTAB
M  V30 COUNTS 16 17 0 0 0
M  V30 BEGIN ATOM
M  V30 1 O 0.0 0.0 0.0 0
M  V30 2 C -0.7622 -1.2267 0.0 0
M  V30 3 C -2.0843 -0.4526 0.0 0 CFG=1
M  V30 4 C 0.4645 -1.9414 0.0 0
M  V30 5 C -1.5245 -2.4535 0.0 0
M  V30 6 C -3.4064 -1.1672 0.0 0
M  V30 7 C -2.132 1.0719 0.0 0
M  V30 8 C -4.7285 -0.393 0.0 0 CFG=1
M  V30 9 C -3.454 1.8342 0.0 0
M  V30 10 C -6.0506 -1.1076 0.0 0
M  V30 11 C -4.7761 1.1315 0.0 0 CFG=1
M  V30 12 C -7.3726 -0.3334 0.0 0
M  V30 13 C -6.0982 -2.5369 0.0 0
M  V30 14 C -6.0982 1.9057 0.0 0
M  V30 15 C -4.8238 2.656 0.0 0
M  V30 16 C -7.4203 1.191 0.0 0
M  V30 END ATOM
M  V30 BEGIN BOND
M  V30 1 1 1 2
M  V30 2 1 3 2 CFG=1
M  V30 3 1 2 4
M  V30 4 1 2 5
M  V30 5 1 3 6
M  V30 6 1 3 7
M  V30 7 1 8 6 CFG=1
M  V30 8 1 7 9
M  V30 9 1 8 10
M  V30 10 1 8 11
M  V30 11 2 10 12
M  V30 12 1 10 13
M  V30 13 1 11 14
M  V30 14 1 11 15 CFG=1
M  V30 15 1 12 16
M  V30 16 1 9 11
M  V30 17 1 14 16
M  V30 END BOND
M  V30 BEGIN COLLECTION
M  V30 MDLV30/STEABS ATOMS=(3 3 8 11)
M  V30 END COLLECTION
M  V30 END CTAB
M  END
>  <Molecule Name>
alpha-eudesmol

>  <Molecule Name 2>
alpha-eudesmol

>  <Database>
Essential Oil Database

>  <InChI>
InChI=1S/C15H26O/c1-11-6-5-8-15(4)9-7-12(10-13(11)15)14(2,3)16/h6,12-13,16H,5,7-10H2,1-4H3/t12-,13+,15-/m1/s1

>  <InChI-Key>
FCSRUSQUAVXUKK-VNHYZAJKSA-N

>  <Smiles>
CC(C)([C@H]1C[C@H]2C(C)=CCC[C@]2(C)CC1)O

>  <Molecular Formula>
C15H26O

$$$$
fenchone
Actelion Java MolfileCreator 2.0

  0  0  0  0  0  0              0 V3000
M  V30 BEGIN CTAB
M  V30 COUNTS 11 12 0 0 0
M  V30 BEGIN ATOM
M  V30 1 O 0.0 0.0 0.0 0
M  V30 2 C 1.2618 -0.7227 0.0 0
M  V30 3 C 2.5236 0.0612 0.0 0
M  V30 4 C 1.2128 -2.1928 0.0 0
M  V30 5 C 2.0825 -1.4088 0.0 0
M  V30 6 C 3.7854 -0.6615 0.0 0
M  V30 7 C 2.4746 1.6293 0.0 0
M  V30 8 C 2.4746 -2.9156 0.0 0
M  V30 9 C 0.637 -3.5649 0.0 0
M  V30 10 C -0.3307 -1.8743 0.0 0
M  V30 11 C 3.7364 -2.1315 0.0 0
M  V30 END ATOM
M  V30 BEGIN BOND
M  V30 1 2 1 2
M  V30 2 1 2 3
M  V30 3 1 2 4
M  V30 4 1 3 5
M  V30 5 1 3 6
M  V30 6 1 3 7
M  V30 7 1 4 8
M  V30 8 1 4 9
M  V30 9 1 4 10
M  V30 10 1 6 11
M  V30 11 1 5 8
M  V30 12 1 8 11
M  V30 END BOND
M  V30 END CTAB
M  END
>  <Molecule Name>
fenchone

>  <Molecule Name 2>
fenchone

>  <Database>
Essential Oil Database

>  <InChI>
InChI=1S/C10H16O/c1-9(2)7-4-5-10(3,6-7)8(9)11/h7H,4-6H2,1-3H3

>  <InChI-Key>
LHXDLQBQYFFVNW-UHFFFAOYSA-N

>  <Smiles>
CC(C)(C1CC2(C)CC1)C2=O

>  <Molecular Formula>
C10H16O

$$$$
methyl chavicol
Actelion Java MolfileCreator 2.0

  0  0  0  0  0  0              0 V3000
M  V30 BEGIN CTAB
M  V30 COUNTS 11 11 0 0 0
M  V30 BEGIN ATOM
M  V30 1 O 0.0 0.0 0.0 0
M  V30 2 C -0.0468 -1.4764 0.0 0
M  V30 3 C -1.3709 0.8202 0.0 0
M  V30 4 C 1.2303 -2.1678 0.0 0
M  V30 5 C -1.4178 -2.1678 0.0 0
M  V30 6 C 1.1835 -3.6442 0.0 0
M  V30 7 C -1.4647 -3.6442 0.0 0
M  V30 8 C -0.1874 -4.3356 0.0 0
M  V30 9 C -0.2343 -5.812 0.0 0
M  V30 10 C -1.6053 -6.5151 0.0 0
M  V30 11 C -1.6522 -7.9916 0.0 0
M  V30 END ATOM
M  V30 BEGIN BOND
M  V30 1 1 1 2
M  V30 2 1 1 3
M  V30 3 2 2 4
M  V30 4 1 2 5
M  V30 5 1 4 6
M  V30 6 2 5 7
M  V30 7 2 6 8
M  V30 8 1 8 9
M  V30 9 1 9 10
M  V30 10 2 10 11
M  V30 11 1 7 8
M  V30 END BOND
M  V30 END CTAB
M  END
>  <Molecule Name>
methyl chavicol

>  <Molecule Name 2>
methyl chavicol

>  <Database>
Essential Oil Database

>  <InChI>
InChI=1S/C10H12O/c1-3-4-9-5-7-10(11-2)8-6-9/h3,5-8H,1,4H2,2H3

>  <InChI-Key>
ZFMSMUAANRJZFM-UHFFFAOYSA-N

>  <Smiles>
COc1ccc(CC=C)cc1

>  <Molecular Formula>
C10H12O

$$$$
trans-anethole
Actelion Java MolfileCreator 2.0

  0  0  0  0  0  0              0 V3000
M  V30 BEGIN CTAB
M  V30 COUNTS 11 11 0 0 0
M  V30 BEGIN ATOM
M  V30 1 O 0.0 0.0 0.0 0
M  V30 2 C -0.0468 -1.4764 0.0 0
M  V30 3 C -1.3709 0.8202 0.0 0
M  V30 4 C 1.2303 -2.1678 0.0 0
M  V30 5 C -1.4178 -2.1678 0.0 0
M  V30 6 C 1.1835 -3.6442 0.0 0
M  V30 7 C -1.4647 -3.6442 0.0 0
M  V30 8 C -0.1874 -4.3356 0.0 0
M  V30 9 C -0.2343 -5.812 0.0 0
M  V30 10 C -1.6053 -6.5151 0.0 0
M  V30 11 C -1.6522 -7.9916 0.0 0
M  V30 END ATOM
M  V30 BEGIN BOND
M  V30 1 1 1 2
M  V30 2 1 1 3
M  V30 3 2 2 4
M  V30 4 1 2 5
M  V30 5 1 4 6
M  V30 6 2 5 7
M  V30 7 2 6 8
M  V30 8 1 8 9
M  V30 9 2 9 10
M  V30 10 1 10 11
M  V30 11 1 7 8
M  V30 END BOND
M  V30 END CTAB
M  END
>  <Molecule Name>
trans-anethole

>  <Molecule Name 2>
trans-anethole

>  <Database>
Essential Oil Database

>  <InChI>
InChI=1S/C10H12O/c1-3-4-9-5-7-10(11-2)8-6-9/h3-8H,1-2H3/b4-3+

>  <InChI-Key>
RUVINXPYWBROJD-ONEGZZNKSA-N

>  <Smiles>
C/C=C/c(cc1)ccc1OC

>  <Molecular Formula>
C10H12O

$$$$
alpha-bergamotene
Actelion Java MolfileCreator 2.0

  0  0  0  0  0  0              0 V3000
M  V30 BEGIN CTAB
M  V30 COUNTS 15 16 0 0 0
M  V30 BEGIN ATOM
M  V30 1 C 0.0 0.0 0.0 0
M  V30 2 C 0.7213 1.3344 0.0 0
M  V30 3 C -1.5387 0.048 0.0 0
M  V30 4 C 0.7213 -1.2382 0.0 0
M  V30 5 C -0.0601 2.6688 0.0 0
M  V30 6 C -2.3201 1.3825 0.0 0
M  V30 7 C -1.2622 1.3825 0.0 0
M  V30 8 C -1.5988 2.7169 0.0 0
M  V30 9 C -3.4983 2.3803 0.0 0
M  V30 10 C -3.4983 0.4808 0.0 0
M  V30 11 C -4.9409 1.9114 0.0 0
M  V30 12 C -6.119 2.9092 0.0 0
M  V30 13 C -5.9026 4.424 0.0 0
M  V30 14 C -7.0808 5.4218 0.0 0
M  V30 15 C -4.5562 4.989 0.0 0
M  V30 END ATOM
M  V30 BEGIN BOND
M  V30 1 2 1 2
M  V30 2 1 1 3
M  V30 3 1 1 4
M  V30 4 1 2 5
M  V30 5 1 3 6
M  V30 6 1 3 7
M  V30 7 1 5 8
M  V30 8 1 6 9
M  V30 9 1 6 10
M  V30 10 1 9 11
M  V30 11 1 11 12
M  V30 12 2 12 13
M  V30 13 1 13 14
M  V30 14 1 13 15
M  V30 15 1 6 8
M  V30 16 1 7 8
M  V30 END BOND
M  V30 END CTAB
M  END
>  <Molecule Name>
alpha-bergamotene

>  <Molecule Name 2>
alpha-bergamotene

>  <Database>
Essential Oil Database

>  <InChI>
InChI=1S/C15H24/c1-11(2)6-5-9-15(4)13-8-7-12(3)14(15)10-13/h6-7,13-14H,5,8-10H2,1-4H3

>  <InChI-Key>
YMBFCQPIMVLNIU-UHFFFAOYSA-N

>  <Smiles>
CC1(CCC=C(C)C)C2C(C)=CCC1C2

>  <Molecular Formula>
C15H24

$$$$
eugenol
Actelion Java MolfileCreator 2.0

  0  0  0  0  0  0              0 V3000
M  V30 BEGIN CTAB
M  V30 COUNTS 12 12 0 0 0
M  V30 BEGIN ATOM
M  V30 1 O 0.0 0.0 0.0 0
M  V30 2 C -0.0468 -1.4758 0.0 0
M  V30 3 C -1.3704 0.8199 0.0 0
M  V30 4 C -1.4172 -2.1669 0.0 0
M  V30 5 C 1.2298 -2.1669 0.0 0
M  V30 6 O -2.7877 -1.347 0.0 0
M  V30 7 C -1.4641 -3.6427 0.0 0
M  V30 8 C 1.183 -3.6427 0.0 0
M  V30 9 C -0.1874 -4.3338 0.0 0
M  V30 10 C 2.4597 -4.3338 0.0 0
M  V30 11 C 2.4129 -5.8097 0.0 0
M  V30 12 C 3.6896 -6.5476 0.0 0
M  V30 END ATOM
M  V30 BEGIN BOND
M  V30 1 1 1 2
M  V30 2 1 1 3
M  V30 3 2 2 4
M  V30 4 1 2 5
M  V30 5 1 4 6
M  V30 6 1 4 7
M  V30 7 2 5 8
M  V30 8 2 7 9
M  V30 9 1 8 10
M  V30 10 1 10 11
M  V30 11 2 11 12
M  V30 12 1 8 9
M  V30 END BOND
M  V30 END CTAB
M  END
>  <Molecule Name>
eugenol

>  <Molecule Name 2>
eugenol

>  <Database>
Essential Oil Database

>  <InChI>
InChI=1S/C10H12O2/c1-3-4-8-5-6-9(11)10(7-8)12-2/h3,5-7,11H,1,4H2,2H3

>  <InChI-Key>
RRAFCDWBNXTKKO-UHFFFAOYSA-N

>  <Smiles>
COc(cc(CC=C)cc1)c1O

>  <Molecular Formula>
C10H12O2

$$$$
safrole
Actelion Java MolfileCreator 2.0

  0  0  0  0  0  0              0 V3000
M  V30 BEGIN CTAB
M  V30 COUNTS 12 13 0 0 0
M  V30 BEGIN ATOM
M  V30 1 O 0.0 0.0 0.0 0
M  V30 2 C 1.4125 -0.4336 0.0 0
M  V30 3 C -0.9417 -1.1895 0.0 0
M  V30 4 C 1.363 -1.9206 0.0 0
M  V30 5 C 2.6888 0.3593 0.0 0
M  V30 6 O -0.0991 -2.379 0.0 0
M  V30 7 C 2.6392 -2.6516 0.0 0
M  V30 8 C 3.9651 -0.3717 0.0 0
M  V30 9 C 3.9155 -1.8462 0.0 0
M  V30 10 C 5.2414 0.4212 0.0 0
M  V30 11 C 5.1918 2.0073 0.0 0
M  V30 12 C 6.4681 2.8127 0.0 0
M  V30 END ATOM
M  V30 BEGIN BOND
M  V30 1 1 1 2
M  V30 2 1 1 3
M  V30 3 2 2 4
M  V30 4 1 2 5
M  V30 5 1 3 6
M  V30 6 1 4 7
M  V30 7 2 5 8
M  V30 8 2 7 9
M  V30 9 1 8 10
M  V30 10 1 10 11
M  V30 11 2 11 12
M  V30 12 1 4 6
M  V30 13 1 8 9
M  V30 END BOND
M  V30 END CTAB
M  END
>  <Molecule Name>
safrole

>  <Molecule Name 2>
safrole

>  <Database>
Essential Oil Database

>  <InChI>
InChI=1S/C10H10O2/c1-2-3-8-4-5-9-10(6-8)12-7-11-9/h2,4-6H,1,3,7H2

>  <InChI-Key>
ZMQAAUBTXCXRIC-UHFFFAOYSA-N

>  <Smiles>
C=CCc(cc1)cc2c1OCO2

>  <Molecular Formula>
C10H10O2

$$$$
camphor
Actelion Java MolfileCreator 2.0

  0  0  0  0  0  0              0 V3000
M  V30 BEGIN CTAB
M  V30 COUNTS 11 12 0 0 0
M  V30 BEGIN ATOM
M  V30 1 O 0.0 0.0 0.0 0
M  V30 2 C -1.3071 0.7536 0.0 0
M  V30 3 C -2.6142 0.0588 0.0 0
M  V30 4 C -1.3542 2.261 0.0 0
M  V30 5 C -3.0382 1.5662 0.0 0
M  V30 6 C -3.9214 0.8243 0.0 0
M  V30 7 C -2.6613 -1.3542 0.0 0
M  V30 8 C -2.6613 3.0146 0.0 0
M  V30 9 C -4.4866 2.0372 0.0 0
M  V30 10 C -4.4866 1.1893 0.0 0
M  V30 11 C -3.9685 2.3316 0.0 0
M  V30 END ATOM
M  V30 BEGIN BOND
M  V30 1 2 1 2
M  V30 2 1 2 3
M  V30 3 1 2 4
M  V30 4 1 3 5
M  V30 5 1 3 6
M  V30 6 1 3 7
M  V30 7 1 4 8
M  V30 8 1 5 9
M  V30 9 1 5 10
M  V30 10 1 6 11
M  V30 11 1 5 8
M  V30 12 1 8 11
M  V30 END BOND
M  V30 END CTAB
M  END
>  <Molecule Name>
camphor

>  <Molecule Name 2>
camphor

>  <Database>
Essential Oil Database

>  <InChI>
InChI=1S/C10H16O/c1-9(2)7-4-5-10(9,3)8(11)6-7/h7H,4-6H2,1-3H3

>  <InChI-Key>
DSSYKIVIOFKYAU-UHFFFAOYSA-N

>  <Smiles>
CC(C)(C(CC1)C2)C1(C)C2=O

>  <Molecular Formula>
C10H16O

$$$$
alpha-fenchol
Actelion Java MolfileCreator 2.0

  0  0  0  0  0  0              0 V3000
M  V30 BEGIN CTAB
M  V30 COUNTS 11 12 0 0 0
M  V30 BEGIN ATOM
M  V30 1 O 0.0 0.0 0.0 0
M  V30 2 C 1.2618 -0.7227 0.0 0 CFG=1
M  V30 3 C 2.5236 0.0612 0.0 0 CFG=2
M  V30 4 C 1.2128 -2.1928 0.0 0
M  V30 5 C 2.0825 -1.4088 0.0 0
M  V30 6 C 3.7854 -0.6615 0.0 0
M  V30 7 C 2.4746 1.6293 0.0 0
M  V30 8 C 2.4746 -2.9156 0.0 0 CFG=1
M  V30 9 C 0.637 -3.5649 0.0 0
M  V30 10 C -0.3307 -1.8743 0.0 0
M  V30 11 C 3.7364 -2.1315 0.0 0
M  V30 END ATOM
M  V30 BEGIN BOND
M  V30 1 1 2 1 CFG=1
M  V30 2 1 2 3
M  V30 3 1 2 4
M  V30 4 1 3 5
M  V30 5 1 3 6
M  V30 6 1 3 7 CFG=3
M  V30 7 1 4 8
M  V30 8 1 4 9
M  V30 9 1 4 10
M  V30 10 1 6 11
M  V30 11 1 8 5 CFG=3
M  V30 12 1 8 11
M  V30 END BOND
M  V30 BEGIN COLLECTION
M  V30 MDLV30/STEABS ATOMS=(3 2 3 8)
M  V30 END COLLECTION
M  V30 END CTAB
M  END
>  <Molecule Name>
alpha-fenchol

>  <Molecule Name 2>
alpha-fenchol

>  <Database>
Essential Oil Database

>  <InChI>
InChI=1S/C10H18O/c1-9(2)7-4-5-10(3,6-7)8(9)11/h7-8,11H,4-6H2,1-3H3/t7-,8-,10+/m1/s1

>  <InChI-Key>
IAIHUHQCLTYTSF-MRTMQBJTSA-N

>  <Smiles>
CC(C)([C@H]1C[C@]2(C)CC1)[C@H]2O

>  <Molecular Formula>
C10H18O

$$$$
p-anisaldehyde
Actelion Java MolfileCreator 2.0

  0  0  0  0  0  0              0 V3000
M  V30 BEGIN CTAB
M  V30 COUNTS 10 10 0 0 0
M  V30 BEGIN ATOM
M  V30 1 O 0.0 0.0 0.0 0
M  V30 2 C 1.2934 -0.7001 0.0 0
M  V30 3 C 1.2459 -2.1953 0.0 0
M  V30 4 C 2.5394 -2.8954 0.0 0
M  V30 5 C -0.1423 -2.8954 0.0 0
M  V30 6 C 2.4919 -4.3906 0.0 0
M  V30 7 C -0.1898 -4.3906 0.0 0
M  V30 8 C 1.1035 -5.0907 0.0 0
M  V30 9 O 1.0561 -6.5859 0.0 0
M  V30 10 C 2.3495 -7.3335 0.0 0
M  V30 END ATOM
M  V30 BEGIN BOND
M  V30 1 2 1 2
M  V30 2 1 2 3
M  V30 3 2 3 4
M  V30 4 1 3 5
M  V30 5 1 4 6
M  V30 6 2 5 7
M  V30 7 2 6 8
M  V30 8 1 8 9
M  V30 9 1 9 10
M  V30 10 1 7 8
M  V30 END BOND
M  V30 END CTAB
M  END
>  <Molecule Name>
p-anisaldehyde

>  <Molecule Name 2>
p-anisaldehyde

>  <Database>
Essential Oil Database

>  <InChI>
InChI=1S/C8H8O2/c1-10-8-4-2-7(6-9)3-5-8/h2-6H,1H3

>  <InChI-Key>
ZRSNZINYAWTAHE-UHFFFAOYSA-N

>  <Smiles>
COc1ccc(C=O)cc1

>  <Molecular Formula>
C8H8O2

$$$$
2-methoxy-4-vinylphenol
Actelion Java MolfileCreator 2.0

  0  0  0  0  0  0              0 V3000
M  V30 BEGIN CTAB
M  V30 COUNTS 11 11 0 0 0
M  V30 BEGIN ATOM
M  V30 1 O 0.0 0.0 0.0 0
M  V30 2 C -1.3471 -0.716 0.0 0
M  V30 3 C 1.25 -0.716 0.0 0
M  V30 4 C -2.6942 0.0606 0.0 0
M  V30 5 C -1.3956 -2.1724 0.0 0
M  V30 6 O -2.7428 1.6141 0.0 0
M  V30 7 C -4.0414 -0.6553 0.0 0
M  V30 8 C -2.7428 -2.8884 0.0 0
M  V30 9 C -4.0899 -2.1117 0.0 0
M  V30 10 C -2.7913 -4.3448 0.0 0
M  V30 11 C -1.5413 -5.073 0.0 0
M  V30 END ATOM
M  V30 BEGIN BOND
M  V30 1 1 1 2
M  V30 2 1 1 3
M  V30 3 2 2 4
M  V30 4 1 2 5
M  V30 5 1 4 6
M  V30 6 1 4 7
M  V30 7 2 5 8
M  V30 8 2 7 9
M  V30 9 1 8 10
M  V30 10 2 10 11
M  V30 11 1 8 9
M  V30 END BOND
M  V30 END CTAB
M  END
>  <Molecule Name>
2-methoxy-4-vinylphenol

>  <Molecule Name 2>
2-methoxy-4-vinylphenol

>  <Database>
Essential Oil Database

>  <InChI>
InChI=1S/C9H10O2/c1-3-7-4-5-8(10)9(6-7)11-2/h3-6,10H,1H2,2H3

>  <InChI-Key>
YOMSJEATGXXYPX-UHFFFAOYSA-N

>  <Smiles>
COc(cc(C=C)cc1)c1O

>  <Molecular Formula>
C9H10O2

$$$$
alpha-cadinol
Actelion Java MolfileCreator 2.0

  0  0  0  0  0  0              0 V3000
M  V30 BEGIN CTAB
M  V30 COUNTS 16 17 0 0 0
M  V30 BEGIN ATOM
M  V30 1 O 0.0 0.0 0.0 0
M  V30 2 C -1.0422 -1.1242 0.0 0 CFG=1
M  V30 3 C 0.2342 -1.8385 0.0 0 CFG=1
M  V30 4 C -2.4123 -1.8385 0.0 0
M  V30 5 C -2.0844 0.0936 0.0 0
M  V30 6 C 0.1873 -3.314 0.0 0 CFG=1
M  V30 7 C 1.5106 -1.007 0.0 0
M  V30 8 C -2.4591 -3.314 0.0 0
M  V30 9 C 1.4638 -4.0283 0.0 0
M  V30 10 C -1.1827 -4.0283 0.0 0 CFG=1
M  V30 11 C 2.787 -1.7214 0.0 0
M  V30 12 C 2.7402 -3.1969 0.0 0
M  V30 13 C -1.2295 -5.5038 0.0 0
M  V30 14 C 4.0166 -3.9347 0.0 0
M  V30 15 C 0.0468 -6.2065 0.0 0
M  V30 16 C -2.5997 -6.2065 0.0 0
M  V30 END ATOM
M  V30 BEGIN BOND
M  V30 1 1 2 1 CFG=1
M  V30 2 1 2 3
M  V30 3 1 2 4
M  V30 4 1 2 5
M  V30 5 1 3 6
M  V30 6 1 3 7 CFG=3
M  V30 7 1 4 8
M  V30 8 1 6 9 CFG=1
M  V30 9 1 6 10
M  V30 10 1 7 11
M  V30 11 2 9 12
M  V30 12 1 10 13 CFG=3
M  V30 13 1 12 14
M  V30 14 1 13 15
M  V30 15 1 13 16
M  V30 16 1 8 10
M  V30 17 1 11 12
M  V30 END BOND
M  V30 BEGIN COLLECTION
M  V30 MDLV30/STEABS ATOMS=(4 2 3 6 10)
M  V30 END COLLECTION
M  V30 END CTAB
M  END
>  <Molecule Name>
alpha-cadinol

>  <Molecule Name 2>
alpha-cadinol

>  <Database>
Essential Oil Database

>  <InChI>
InChI=1S/C15H26O/c1-10(2)12-7-8-15(4,16)14-6-5-11(3)9-13(12)14/h9-10,12-14,16H,5-8H2,1-4H3/t12-,13-,14+,15+/m0/s1

>  <InChI-Key>
LHYHMMRYTDARSZ-BYNSBNAKSA-N

>  <Smiles>
CC(C)[C@H](CC1)[C@@H]2C=C(C)CC[C@H]2[C@]1(C)O

>  <Molecular Formula>
C15H26O

$$$$
alpha-cubebene
Actelion Java MolfileCreator 2.0

  0  0  0  0  0  0              0 V3000
M  V30 BEGIN CTAB
M  V30 COUNTS 15 17 0 0 0
M  V30 BEGIN ATOM
M  V30 1 C 0.0 0.0 0.0 0
M  V30 2 C -0.1284 -1.4717 0.0 0
M  V30 3 C 1.425 0.4205 0.0 0 CFG=1
M  V30 4 C -1.2264 1.0162 0.0 0
M  V30 5 C 1.2498 -1.9623 0.0 0
M  V30 6 C 2.2193 -0.8176 0.0 0
M  V30 7 C 2.8967 0.5373 0.0 0 CFG=2
M  V30 8 C 3.0135 -2.0557 0.0 0 CFG=1
M  V30 9 C 4.3685 0.6541 0.0 0 CFG=2
M  V30 10 C 4.4853 -1.9389 0.0 0
M  V30 11 C 2.2893 -3.364 0.0 0
M  V30 12 C 4.9992 2.0557 0.0 0
M  V30 13 C 5.1628 -0.584 0.0 0
M  V30 14 C 4.1115 3.3873 0.0 0
M  V30 15 C 6.471 2.1725 0.0 0
M  V30 END ATOM
M  V30 BEGIN BOND
M  V30 1 2 1 2
M  V30 2 1 3 1 CFG=3
M  V30 3 1 1 4
M  V30 4 1 2 5
M  V30 5 1 3 6
M  V30 6 1 7 3 CFG=1
M  V30 7 1 6 8
M  V30 8 1 7 9
M  V30 9 1 8 10
M  V30 10 1 8 11 CFG=1
M  V30 11 1 9 12 CFG=3
M  V30 12 1 9 13
M  V30 13 1 12 14
M  V30 14 1 12 15
M  V30 15 1 5 6
M  V30 16 1 6 7
M  V30 17 1 10 13
M  V30 END BOND
M  V30 BEGIN COLLECTION
M  V30 MDLV30/STEABS ATOMS=(4 3 7 8 9)
M  V30 END COLLECTION
M  V30 END CTAB
M  END
>  <Molecule Name>
alpha-cubebene

>  <Molecule Name 2>
alpha-cubebene

>  <Database>
Essential Oil Database

>  <InChI>
InChI=1S/C15H24/c1-9(2)12-6-5-11(4)15-8-7-10(3)13(15)14(12)15/h7,9,11-14H,5-6,8H2,1-4H3/t11-,12+,13-,14-,15?/m1/s1

>  <InChI-Key>
XUEHVOLRMXNRKQ-PFNKYVCDSA-N

>  <Smiles>
CC(C)[C@H]1[C@H]([C@H]2C(C)=CC3)C23[C@H](C)CC1

>  <Molecular Formula>
C15H24

$$$$
beta-damascenone
Actelion Java MolfileCreator 2.0

  0  0  0  0  0  0              0 V3000
M  V30 BEGIN CTAB
M  V30 COUNTS 14 14 0 0 0
M  V30 BEGIN ATOM
M  V30 1 O 0.0 0.0 0.0 0
M  V30 2 C -1.3276 0.7774 0.0 0
M  V30 3 C -2.6552 0.0717 0.0 0
M  V30 4 C -1.3754 2.3084 0.0 0
M  V30 5 C -2.7031 -1.3635 0.0 0
M  V30 6 C -3.9829 0.8492 0.0 0
M  V30 7 C -0.1435 3.0858 0.0 0
M  V30 8 C -4.0307 -2.0692 0.0 0
M  V30 9 C -1.4711 -2.0692 0.0 0
M  V30 10 C -5.3105 0.1435 0.0 0
M  V30 11 C -4.7484 2.2007 0.0 0
M  V30 12 C -3.3131 2.2007 0.0 0
M  V30 13 C -0.1913 4.6168 0.0 0
M  V30 14 C -5.3584 -1.2917 0.0 0
M  V30 END ATOM
M  V30 BEGIN BOND
M  V30 1 2 1 2
M  V30 2 1 2 3
M  V30 3 1 2 4
M  V30 4 2 3 5
M  V30 5 1 3 6
M  V30 6 2 4 7
M  V30 7 1 5 8
M  V30 8 1 5 9
M  V30 9 1 6 10
M  V30 10 1 6 11
M  V30 11 1 6 12
M  V30 12 1 7 13
M  V30 13 2 8 14
M  V30 14 1 10 14
M  V30 END BOND
M  V30 END CTAB
M  END
>  <Molecule Name>
beta-damascenone

>  <Molecule Name 2>
beta-damascenone

>  <Database>
Essential Oil Database

>  <InChI>
InChI=1S/C13H18O/c1-5-7-11(14)12-10(2)8-6-9-13(12,3)4/h5-8H,9H2,1-4H3/b7-5+

>  <InChI-Key>
POIARNZEYGURDG-FNORWQNLSA-N

>  <Smiles>
CC1(C)C(C(/C=C/C)=O)=C(C)C=CC1

>  <Molecular Formula>
C13H18O

$$$$
carvone
Actelion Java MolfileCreator 2.0

  0  0  0  0  0  0              0 V3000
M  V30 BEGIN CTAB
M  V30 COUNTS 11 11 0 0 0
M  V30 BEGIN ATOM
M  V30 1 O 0.0 0.0 0.0 0
M  V30 2 C 1.2524 0.7782 0.0 0
M  V30 3 C 2.5049 0.0607 0.0 0
M  V30 4 C 1.2038 2.3346 0.0 0
M  V30 5 C 3.7573 0.8511 0.0 0
M  V30 6 C 2.4562 -1.3983 0.0 0
M  V30 7 C 2.4562 3.125 0.0 0 CFG=2
M  V30 8 C 3.7087 2.4076 0.0 0
M  V30 9 C 2.4076 4.6815 0.0 0
M  V30 10 C 3.66 5.4718 0.0 0
M  V30 11 C 1.0578 5.4718 0.0 0
M  V30 END ATOM
M  V30 BEGIN BOND
M  V30 1 2 1 2
M  V30 2 1 2 3
M  V30 3 1 2 4
M  V30 4 2 3 5
M  V30 5 1 3 6
M  V30 6 1 4 7
M  V30 7 1 5 8
M  V30 8 1 7 9 CFG=1
M  V30 9 2 9 10
M  V30 10 1 9 11
M  V30 11 1 7 8
M  V30 END BOND
M  V30 BEGIN COLLECTION
M  V30 MDLV30/STERAC1 ATOMS=(1 7)
M  V30 END COLLECTION
M  V30 END CTAB
M  END
>  <Molecule Name>
carvone

>  <Molecule Name 2>
carvone

>  <Database>
Essential Oil Database

>  <InChI>
InChI=1S/C10H14O/c1-7(2)9-5-4-8(3)10(11)6-9/h4,9H,1,5-6H2,2-3H3/t9-/m0/s1

>  <InChI-Key>
ULDHMXUKGWMISQ-VIFPVBQESA-N

>  <Smiles>
CC(C(CC=C1C)CC1=O)=C

>  <Molecular Formula>
C10H14O

$$$$
decanal
Actelion Java MolfileCreator 2.0

  0  0  0  0  0  0              0 V3000
M  V30 BEGIN CTAB
M  V30 COUNTS 11 10 0 0 0
M  V30 BEGIN ATOM
M  V30 1 O 0.0 0.0 0.0 0
M  V30 2 C 1.284 0.8152 0.0 0
M  V30 3 C 2.5681 0.0815 0.0 0
M  V30 4 C 3.8522 0.8968 0.0 0
M  V30 5 C 5.1363 0.163 0.0 0
M  V30 6 C 6.4204 0.9783 0.0 0
M  V30 7 C 7.7045 0.2445 0.0 0
M  V30 8 C 8.9886 1.0598 0.0 0
M  V30 9 C 10.2727 0.3261 0.0 0
M  V30 10 C 11.5568 1.1414 0.0 0
M  V30 11 C 12.8408 0.4076 0.0 0
M  V30 END ATOM
M  V30 BEGIN BOND
M  V30 1 2 1 2
M  V30 2 1 2 3
M  V30 3 1 3 4
M  V30 4 1 4 5
M  V30 5 1 5 6
M  V30 6 1 6 7
M  V30 7 1 7 8
M  V30 8 1 8 9
M  V30 9 1 9 10
M  V30 10 1 10 11
M  V30 END BOND
M  V30 END CTAB
M  END
>  <Molecule Name>
decanal

>  <Molecule Name 2>
decanal

>  <Database>
Essential Oil Database

>  <InChI>
InChI=1S/C10H20O/c1-2-3-4-5-6-7-8-9-10-11/h10H,2-9H2,1H3

>  <InChI-Key>
KSMVZQYAVGTKIV-UHFFFAOYSA-N

>  <Smiles>
CCCCCCCCCC=O

>  <Molecular Formula>
C10H20O

$$$$
ethyl-3-phenylpropionate
Actelion Java MolfileCreator 2.0

  0  0  0  0  0  0              0 V3000
M  V30 BEGIN CTAB
M  V30 COUNTS 13 13 0 0 0
M  V30 BEGIN ATOM
M  V30 1 O 0.0 0.0 0.0 0
M  V30 2 C -0.0476 1.5236 0.0 0
M  V30 3 O 1.1784 2.2974 0.0 0
M  V30 4 C -1.3689 2.2974 0.0 0
M  V30 5 C 2.4045 1.5951 0.0 0
M  V30 6 C -2.6902 1.5951 0.0 0
M  V30 7 C 3.6306 2.3688 0.0 0
M  V30 8 C -4.0116 2.3688 0.0 0
M  V30 9 C -5.3329 1.6665 0.0 0
M  V30 10 C -4.0592 3.8925 0.0 0
M  V30 11 C -6.6542 2.4402 0.0 0
M  V30 12 C -5.3805 4.6663 0.0 0
M  V30 13 C -6.7018 3.9639 0.0 0
M  V30 END ATOM
M  V30 BEGIN BOND
M  V30 1 2 1 2
M  V30 2 1 2 3
M  V30 3 1 2 4
M  V30 4 1 3 5
M  V30 5 1 4 6
M  V30 6 1 5 7
M  V30 7 1 6 8
M  V30 8 2 8 9
M  V30 9 1 8 10
M  V30 10 1 9 11
M  V30 11 2 10 12
M  V30 12 2 11 13
M  V30 13 1 12 13
M  V30 END BOND
M  V30 END CTAB
M  END
>  <Molecule Name>
ethyl-3-phenylpropionate

>  <Molecule Name 2>
ethyl-3-phenylpropionate

>  <Database>
Essential Oil Database

>  <InChI>
InChI=1S/C11H14O2/c1-2-13-11(12)9-8-10-6-4-3-5-7-10/h3-7H,2,8-9H2,1H3

>  <InChI-Key>
JAGZUIGGHGTFHO-UHFFFAOYSA-N

>  <Smiles>
CCOC(CCc1ccccc1)=O

>  <Molecular Formula>
C11H14O2

$$$$
geraniol
Actelion Java MolfileCreator 2.0

  0  0  0  0  0  0              0 V3000
M  V30 BEGIN CTAB
M  V30 COUNTS 11 10 0 0 0
M  V30 BEGIN ATOM
M  V30 1 O 0.0 0.0 0.0 0
M  V30 2 C -0.803 1.3616 0.0 0
M  V30 3 C -0.1163 2.7232 0.0 0
M  V30 4 C 1.35 2.7698 0.0 0
M  V30 5 C 2.0366 4.1314 0.0 0
M  V30 6 C 2.0366 1.5013 0.0 0
M  V30 7 C 3.503 4.178 0.0 0
M  V30 8 C 4.1896 5.5396 0.0 0
M  V30 9 C 5.656 5.5862 0.0 0
M  V30 10 C 6.3776 6.9478 0.0 0
M  V30 11 C 6.3776 4.3177 0.0 0
M  V30 END ATOM
M  V30 BEGIN BOND
M  V30 1 1 1 2
M  V30 2 1 2 3
M  V30 3 2 3 4
M  V30 4 1 4 5
M  V30 5 1 4 6
M  V30 6 1 5 7
M  V30 7 1 7 8
M  V30 8 2 8 9
M  V30 9 1 9 10
M  V30 10 1 9 11
M  V30 END BOND
M  V30 END CTAB
M  END
>  <Molecule Name>
geraniol

>  <Molecule Name 2>
geraniol

>  <Database>
Essential Oil Database

>  <InChI>
InChI=1S/C10H18O/c1-9(2)5-4-6-10(3)7-8-11/h5,7,11H,4,6,8H2,1-3H3/b10-7+

>  <InChI-Key>
GLZPCOQZEFWAFX-JXMROGBWSA-N

>  <Smiles>
CC(C)=CCC/C(\C)=C/CO

>  <Molecular Formula>
C10H18O

$$$$
hexadecanoic acid
Actelion Java MolfileCreator 2.0

  0  0  0  0  0  0              0 V3000
M  V30 BEGIN CTAB
M  V30 COUNTS 18 17 0 0 0
M  V30 BEGIN ATOM
M  V30 1 O 0.0 0.0 0.0 0
M  V30 2 C -0.0471 -1.4836 0.0 0
M  V30 3 O -1.4248 -2.2019 0.0 0
M  V30 4 C 1.2363 -2.2019 0.0 0
M  V30 5 C 2.5198 -1.3777 0.0 0
M  V30 6 C 3.8033 -2.1195 0.0 0
M  V30 7 C 5.0868 -1.2952 0.0 0
M  V30 8 C 6.3703 -2.0017 0.0 0
M  V30 9 C 7.6538 -1.1775 0.0 0
M  V30 10 C 8.9373 -1.884 0.0 0
M  V30 11 C 10.2208 -1.0597 0.0 0
M  V30 12 C 11.5043 -1.778 0.0 0
M  V30 13 C 12.7878 -0.9537 0.0 0
M  V30 14 C 14.0713 -1.672 0.0 0
M  V30 15 C 15.3548 -0.8478 0.0 0
M  V30 16 C 16.6383 -1.5896 0.0 0
M  V30 17 C 17.9218 -0.7653 0.0 0
M  V30 18 C 19.2053 -1.4954 0.0 0
M  V30 END ATOM
M  V30 BEGIN BOND
M  V30 1 2 1 2
M  V30 2 1 2 3
M  V30 3 1 2 4
M  V30 4 1 4 5
M  V30 5 1 5 6
M  V30 6 1 6 7
M  V30 7 1 7 8
M  V30 8 1 8 9
M  V30 9 1 9 10
M  V30 10 1 10 11
M  V30 11 1 11 12
M  V30 12 1 12 13
M  V30 13 1 13 14
M  V30 14 1 14 15
M  V30 15 1 15 16
M  V30 16 1 16 17
M  V30 17 1 17 18
M  V30 END BOND
M  V30 END CTAB
M  END
>  <Molecule Name>
hexadecanoic acid

>  <Molecule Name 2>
hexadecanoic acid

>  <Database>
Essential Oil Database

>  <InChI>
InChI=1S/C16H32O2/c1-2-3-4-5-6-7-8-9-10-11-12-13-14-15-16(17)18/h2-15H2,1H3,(H,17,18)

>  <InChI-Key>
IPCSVZSSVZVIGE-UHFFFAOYSA-N

>  <Smiles>
CCCCCCCCCCCCCCCC(O)=O

>  <Molecular Formula>
C16H32O2

$$$$
jasmone
Actelion Java MolfileCreator 2.0

  0  0  0  0  0  0              0 V3000
M  V30 BEGIN CTAB
M  V30 COUNTS 12 12 0 0 0
M  V30 BEGIN ATOM
M  V30 1 O 0.0 0.0 0.0 0
M  V30 2 C 1.3881 -0.4261 0.0 0
M  V30 3 C 2.557 0.4992 0.0 0
M  V30 4 C 1.8142 -1.8142 0.0 0
M  V30 5 C 3.7259 -0.3287 0.0 0
M  V30 6 C 2.5083 2.0578 0.0 0
M  V30 7 C 3.2754 -1.7655 0.0 0
M  V30 8 C 5.114 0.1948 0.0 0
M  V30 9 C 1.1567 2.837 0.0 0
M  V30 10 C 1.108 4.3956 0.0 0
M  V30 11 C 2.3622 5.1871 0.0 0
M  V30 12 C 2.3135 6.7457 0.0 0
M  V30 END ATOM
M  V30 BEGIN BOND
M  V30 1 2 1 2
M  V30 2 1 2 3
M  V30 3 1 2 4
M  V30 4 2 3 5
M  V30 5 1 3 6
M  V30 6 1 4 7
M  V30 7 1 5 8
M  V30 8 1 6 9
M  V30 9 2 9 10
M  V30 10 1 10 11
M  V30 11 1 11 12
M  V30 12 1 5 7
M  V30 END BOND
M  V30 END CTAB
M  END
>  <Molecule Name>
jasmone

>  <Molecule Name 2>
jasmone

>  <Database>
Essential Oil Database

>  <InChI>
InChI=1S/C11H16O/c1-3-4-5-6-10-9(2)7-8-11(10)12/h4-5H,3,6-8H2,1-2H3/b5-4-

>  <InChI-Key>
XMLSXPIVAXONDL-PLNGDYQASA-N

>  <Smiles>
CC/C=C\CC1=C(C)CCC1=O

>  <Molecular Formula>
C11H16O

$$$$
phytol
Actelion Java MolfileCreator 2.0

  0  0  0  0  0  0              0 V3000
M  V30 BEGIN CTAB
M  V30 COUNTS 21 20 0 0 0
M  V30 BEGIN ATOM
M  V30 1 O 0.0 0.0 0.0 0
M  V30 2 C -0.0497 1.5909 0.0 0
M  V30 3 C 1.2305 2.3989 0.0 0
M  V30 4 C 2.5107 1.6655 0.0 0
M  V30 5 C 3.791 2.4734 0.0 0
M  V30 6 C 2.461 0.174 0.0 0
M  V30 7 C 5.0712 1.7401 0.0 0
M  V30 8 C 6.3515 2.548 0.0 0
M  V30 9 C 7.6317 1.8147 0.0 0 CFG=1
M  V30 10 C 8.912 2.6226 0.0 0
M  V30 11 C 7.582 0.3231 0.0 0
M  V30 12 C 10.1922 1.8892 0.0 0
M  V30 13 C 11.4725 2.6972 0.0 0
M  V30 14 C 12.7527 1.9638 0.0 0 CFG=1
M  V30 15 C 14.0329 2.7717 0.0 0
M  V30 16 C 12.703 0.4723 0.0 0
M  V30 17 C 15.3132 2.0384 0.0 0
M  V30 18 C 16.5934 2.8463 0.0 0
M  V30 19 C 17.8737 2.113 0.0 0
M  V30 20 C 19.1539 2.9209 0.0 0
M  V30 21 C 17.824 0.6214 0.0 0
M  V30 END ATOM
M  V30 BEGIN BOND
M  V30 1 1 1 2
M  V30 2 1 2 3
M  V30 3 2 3 4
M  V30 4 1 4 5
M  V30 5 1 4 6
M  V30 6 1 5 7
M  V30 7 1 7 8
M  V30 8 1 8 9
M  V30 9 1 9 10
M  V30 10 1 9 11 CFG=1
M  V30 11 1 10 12
M  V30 12 1 12 13
M  V30 13 1 13 14
M  V30 14 1 14 15
M  V30 15 1 14 16 CFG=1
M  V30 16 1 15 17
M  V30 17 1 17 18
M  V30 18 1 18 19
M  V30 19 1 19 20
M  V30 20 1 19 21
M  V30 END BOND
M  V30 BEGIN COLLECTION
M  V30 MDLV30/STEABS ATOMS=(2 9 14)
M  V30 END COLLECTION
M  V30 END CTAB
M  END
>  <Molecule Name>
phytol

>  <Molecule Name 2>
phytol

>  <Database>
Essential Oil Database

>  <InChI>
InChI=1S/C20H40O/c1-17(2)9-6-10-18(3)11-7-12-19(4)13-8-14-20(5)15-16-21/h15,17-19,21H,6-14,16H2,1-5H3/b20-15+/t18-,19-/m1/s1

>  <InChI-Key>
BOTWFXYSPFMFNR-PYDDKJGSSA-N

>  <Smiles>
CC(C)CCC[C@@H](C)CCC[C@@H](C)CCC/C(\C)=C/CO

>  <Molecular Formula>
C20H40O

$$$$
tetradecanoic acid
Actelion Java MolfileCreator 2.0

  0  0  0  0  0  0              0 V3000
M  V30 BEGIN CTAB
M  V30 COUNTS 16 15 0 0 0
M  V30 BEGIN ATOM
M  V30 1 O 0.0 0.0 0.0 0
M  V30 2 C -0.047 -1.483 0.0 0
M  V30 3 O -1.4242 -2.2128 0.0 0
M  V30 4 C 1.2359 -2.2128 0.0 0
M  V30 5 C 2.5188 -1.3889 0.0 0
M  V30 6 C 3.8018 -2.1069 0.0 0
M  V30 7 C 5.0848 -1.2829 0.0 0
M  V30 8 C 6.3678 -1.9892 0.0 0
M  V30 9 C 7.6508 -1.1652 0.0 0
M  V30 10 C 8.9337 -1.895 0.0 0
M  V30 11 C 10.2167 -1.0711 0.0 0
M  V30 12 C 11.4997 -1.8008 0.0 0
M  V30 13 C 12.7827 -0.9769 0.0 0
M  V30 14 C 14.0657 -1.7067 0.0 0
M  V30 15 C 15.3487 -0.8827 0.0 0
M  V30 16 C 16.6316 -1.6007 0.0 0
M  V30 END ATOM
M  V30 BEGIN BOND
M  V30 1 2 1 2
M  V30 2 1 2 3
M  V30 3 1 2 4
M  V30 4 1 4 5
M  V30 5 1 5 6
M  V30 6 1 6 7
M  V30 7 1 7 8
M  V30 8 1 8 9
M  V30 9 1 9 10
M  V30 10 1 10 11
M  V30 11 1 11 12
M  V30 12 1 12 13
M  V30 13 1 13 14
M  V30 14 1 14 15
M  V30 15 1 15 16
M  V30 END BOND
M  V30 END CTAB
M  END
>  <Molecule Name>
tetradecanoic acid

>  <Molecule Name 2>
tetradecanoic acid

>  <Database>
Essential Oil Database

>  <InChI>
InChI=1S/C14H28O2/c1-2-3-4-5-6-7-8-9-10-11-12-13-14(15)16/h2-13H2,1H3,(H,15,16)

>  <InChI-Key>
TUNFSRHWOTWDNC-UHFFFAOYSA-N

>  <Smiles>
CCCCCCCCCCCCCC(O)=O

>  <Molecular Formula>
C14H28O2

$$$$
undecanal
Actelion Java MolfileCreator 2.0

  0  0  0  0  0  0              0 V3000
M  V30 BEGIN CTAB
M  V30 COUNTS 12 11 0 0 0
M  V30 BEGIN ATOM
M  V30 1 O 0.0 0.0 0.0 0
M  V30 2 C 1.2824 0.8142 0.0 0
M  V30 3 C 2.5649 0.0814 0.0 0
M  V30 4 C 3.8473 0.8956 0.0 0
M  V30 5 C 5.1298 0.1628 0.0 0
M  V30 6 C 6.4122 0.9771 0.0 0
M  V30 7 C 7.6947 0.2442 0.0 0
M  V30 8 C 8.9771 1.0585 0.0 0
M  V30 9 C 10.2596 0.3257 0.0 0
M  V30 10 C 11.542 1.1399 0.0 0
M  V30 11 C 12.8245 0.4071 0.0 0
M  V30 12 C 14.1069 1.2213 0.0 0
M  V30 END ATOM
M  V30 BEGIN BOND
M  V30 1 2 1 2
M  V30 2 1 2 3
M  V30 3 1 3 4
M  V30 4 1 4 5
M  V30 5 1 5 6
M  V30 6 1 6 7
M  V30 7 1 7 8
M  V30 8 1 8 9
M  V30 9 1 9 10
M  V30 10 1 10 11
M  V30 11 1 11 12
M  V30 END BOND
M  V30 END CTAB
M  END
>  <Molecule Name>
undecanal

>  <Molecule Name 2>
undecanal

>  <Database>
Essential Oil Database

>  <InChI>
InChI=1S/C11H22O/c1-2-3-4-5-6-7-8-9-10-11-12/h11H,2-10H2,1H3

>  <InChI-Key>
KMPQYAYAQWNLME-UHFFFAOYSA-N

>  <Smiles>
CCCCCCCCCCC=O

>  <Molecular Formula>
C11H22O

$$$$
1,8-cineole
Actelion Java MolfileCreator 2.0

  0  0  0  0  0  0              0 V3000
M  V30 BEGIN CTAB
M  V30 COUNTS 11 12 0 0 0
M  V30 BEGIN ATOM
M  V30 1 O 0.0 0.0 0.0 0
M  V30 2 C -1.4396 -0.7781 0.0 0 CFG=2
M  V30 3 C -0.0518 1.66 0.0 0
M  V30 4 C -1.2191 0.3372 0.0 0
M  V30 5 C -2.8792 0.0648 0.0 0
M  V30 6 C -1.4914 -2.3345 0.0 0
M  V30 7 C -1.4914 2.5031 0.0 0 CFG=1
M  V30 8 C 0.4539 3.2164 0.0 0
M  V30 9 C 1.4785 1.4266 0.0 0
M  V30 10 C -1.271 1.4525 0.0 0
M  V30 11 C -2.931 1.7249 0.0 0
M  V30 END ATOM
M  V30 BEGIN BOND
M  V30 1 1 1 2
M  V30 2 1 1 3
M  V30 3 1 2 4
M  V30 4 1 2 5
M  V30 5 1 2 6 CFG=1
M  V30 6 1 3 7
M  V30 7 1 3 8
M  V30 8 1 3 9
M  V30 9 1 4 10
M  V30 10 1 5 11
M  V30 11 1 7 10 CFG=1
M  V30 12 1 7 11
M  V30 END BOND
M  V30 BEGIN COLLECTION
M  V30 MDLV30/STEABS ATOMS=(2 2 7)
M  V30 END COLLECTION
M  V30 END CTAB
M  END
>  <Molecule Name>
1,8-cineole

>  <Molecule Name 2>
1,8-cineole

>  <Database>
Essential Oil Database

>  <InChI>
InChI=1S/C10H18O/c1-9(2)8-4-6-10(3,11-9)7-5-8/h8H,4-7H2,1-3H3/t8-,10+

>  <InChI-Key>
WEEGYLXZBRQIMU-WAAGHKOSSA-N

>  <Smiles>
CC1(C)O[C@]2(C)CC[C@H]1CC2

>  <Molecular Formula>
C10H18O

$$$$
anisketone
Actelion Java MolfileCreator 2.0

  0  0  0  0  0  0              0 V3000
M  V30 BEGIN CTAB
M  V30 COUNTS 10 10 0 0 0
M  V30 BEGIN ATOM
M  V30 1 O 0.0 0.0 0.0 0
M  V30 2 C 1.2949 -0.7128 0.0 0
M  V30 3 C 1.2474 -2.2097 0.0 0
M  V30 4 O 2.5424 -2.9107 0.0 0
M  V30 5 C 2.4948 -4.4076 0.0 0
M  V30 6 C 3.7898 -5.1086 0.0 0
M  V30 7 C 1.1048 -5.1086 0.0 0
M  V30 8 C 3.7423 -6.6055 0.0 0
M  V30 9 C 1.0573 -6.6055 0.0 0
M  V30 10 C 2.3523 -7.3064 0.0 0
M  V30 END ATOM
M  V30 BEGIN BOND
M  V30 1 2 1 2
M  V30 2 1 2 3
M  V30 3 1 3 4
M  V30 4 1 4 5
M  V30 5 2 5 6
M  V30 6 1 5 7
M  V30 7 1 6 8
M  V30 8 2 7 9
M  V30 9 2 8 10
M  V30 10 1 9 10
M  V30 END BOND
M  V30 END CTAB
M  END
>  <Molecule Name>
anisketone

>  <Molecule Name 2>
anisketone

>  <Database>
Essential Oil Database

>  <InChI>
InChI=1S/C8H8O2/c9-6-7-10-8-4-2-1-3-5-8/h1-6H,7H2

>  <InChI-Key>
XFFILAFLGDUMBF-UHFFFAOYSA-N

>  <Smiles>
O=CCOc1ccccc1

>  <Molecular Formula>
C8H8O2

$$$$
dillapiole
Actelion Java MolfileCreator 2.0

  0  0  0  0  0  0              0 V3000
M  V30 BEGIN CTAB
M  V30 COUNTS 16 17 0 0 0
M  V30 BEGIN ATOM
M  V30 1 O 0.0 0.0 0.0 0
M  V30 2 C 1.3956 0.5264 0.0 0
M  V30 3 C -0.9304 1.2731 0.0 0
M  V30 4 C 2.6565 -0.1958 0.0 0
M  V30 5 C 1.3466 2.0934 0.0 0
M  V30 6 O -0.0979 2.5463 0.0 0
M  V30 7 O 2.6075 -1.6649 0.0 0
M  V30 8 C 3.9174 0.5876 0.0 0
M  V30 9 C 2.6075 2.8891 0.0 0
M  V30 10 C 1.2487 -2.3994 0.0 0
M  V30 11 O 5.1784 -0.1346 0.0 0
M  V30 12 C 3.8685 2.1546 0.0 0
M  V30 13 C 5.1294 -1.6037 0.0 0
M  V30 14 C 5.1294 2.9503 0.0 0
M  V30 15 C 6.3904 2.228 0.0 0
M  V30 16 C 7.6513 3.0238 0.0 0
M  V30 END ATOM
M  V30 BEGIN BOND
M  V30 1 1 1 2
M  V30 2 1 1 3
M  V30 3 2 2 4
M  V30 4 1 2 5
M  V30 5 1 3 6
M  V30 6 1 4 7
M  V30 7 1 4 8
M  V30 8 2 5 9
M  V30 9 1 7 10
M  V30 10 1 8 11
M  V30 11 2 8 12
M  V30 12 1 11 13
M  V30 13 1 12 14
M  V30 14 1 14 15
M  V30 15 2 15 16
M  V30 16 1 5 6
M  V30 17 1 9 12
M  V30 END BOND
M  V30 END CTAB
M  END
>  <Molecule Name>
dillapiole

>  <Molecule Name 2>
dillapiole

>  <Database>
Essential Oil Database

>  <InChI>
InChI=1S/C12H14O4/c1-4-5-8-6-9-11(16-7-15-9)12(14-3)10(8)13-2/h4,6H,1,5,7H2,2-3H3

>  <InChI-Key>
LIKYNOPXHGPMIH-UHFFFAOYSA-N

>  <Smiles>
COc1c2OCOc2cc(CC=C)c1OC

>  <Molecular Formula>
C12H14O4

$$$$
2-methylbutylisovalerate
Actelion Java MolfileCreator 2.0

  0  0  0  0  0  0              0 V3000
M  V30 BEGIN CTAB
M  V30 COUNTS 12 11 0 0 0
M  V30 BEGIN ATOM
M  V30 1 O 0.0 0.0 0.0 0
M  V30 2 C -0.0484 1.549 0.0 0
M  V30 3 O 1.198 2.3356 0.0 0
M  V30 4 C -1.3917 2.3356 0.0 0
M  V30 5 C 2.4445 1.6095 0.0 0
M  V30 6 C -2.735 1.6095 0.0 0
M  V30 7 C 3.691 2.3961 0.0 0 CFG=2
M  V30 8 C -4.0783 2.3961 0.0 0
M  V30 9 C -2.7834 0.1573 0.0 0
M  V30 10 C 4.9375 1.67 0.0 0
M  V30 11 C 3.6426 3.9452 0.0 0
M  V30 12 C 6.184 2.4566 0.0 0
M  V30 END ATOM
M  V30 BEGIN BOND
M  V30 1 2 1 2
M  V30 2 1 2 3
M  V30 3 1 2 4
M  V30 4 1 3 5
M  V30 5 1 4 6
M  V30 6 1 5 7
M  V30 7 1 6 8
M  V30 8 1 6 9
M  V30 9 1 7 10
M  V30 10 1 7 11 CFG=1
M  V30 11 1 10 12
M  V30 END BOND
M  V30 BEGIN COLLECTION
M  V30 MDLV30/STERAC1 ATOMS=(1 7)
M  V30 END COLLECTION
M  V30 END CTAB
M  END
>  <Molecule Name>
2-methylbutylisovalerate

>  <Molecule Name 2>
2-methylbutylisovalerate

>  <Database>
Essential Oil Database

>  <InChI>
InChI=1S/C10H20O2/c1-5-9(4)7-12-10(11)6-8(2)3/h8-9H,5-7H2,1-4H3/t9-/m0/s1

>  <InChI-Key>
CYGPPWVXOWCHJB-VIFPVBQESA-N

>  <Smiles>
CCC(C)COC(CC(C)C)=O

>  <Molecular Formula>
C10H20O2

$$$$
isoamyl isovalerate
Actelion Java MolfileCreator 2.0

  0  0  0  0  0  0              0 V3000
M  V30 BEGIN CTAB
M  V30 COUNTS 12 11 0 0 0
M  V30 BEGIN ATOM
M  V30 1 O 0.0 0.0 0.0 0
M  V30 2 C -0.0482 1.5424 0.0 0
M  V30 3 O -1.3858 2.3257 0.0 0
M  V30 4 C 1.1929 2.3257 0.0 0
M  V30 5 C -2.7234 1.6027 0.0 0
M  V30 6 C 2.4342 1.6027 0.0 0
M  V30 7 C -4.061 2.3859 0.0 0
M  V30 8 C 3.6754 2.3859 0.0 0
M  V30 9 C 2.3859 0.1566 0.0 0
M  V30 10 C -5.3986 1.6629 0.0 0
M  V30 11 C -6.7362 2.4462 0.0 0
M  V30 12 C -5.4468 0.2169 0.0 0
M  V30 END ATOM
M  V30 BEGIN BOND
M  V30 1 2 1 2
M  V30 2 1 2 3
M  V30 3 1 2 4
M  V30 4 1 3 5
M  V30 5 1 4 6
M  V30 6 1 5 7
M  V30 7 1 6 8
M  V30 8 1 6 9
M  V30 9 1 7 10
M  V30 10 1 10 11
M  V30 11 1 10 12
M  V30 END BOND
M  V30 END CTAB
M  END
>  <Molecule Name>
isoamyl isovalerate

>  <Molecule Name 2>
isoamyl isovalerate

>  <Database>
Essential Oil Database

>  <InChI>
InChI=1S/C10H20O2/c1-8(2)5-6-12-10(11)7-9(3)4/h8-9H,5-7H2,1-4H3

>  <InChI-Key>
XINCECQTMHSORG-UHFFFAOYSA-N

>  <Smiles>
CC(C)CCOC(CC(C)C)=O

>  <Molecular Formula>
C10H20O2

$$$$
trans-p-menth-2,8-dien-1-ol
Actelion Java MolfileCreator 2.0

  0  0  0  0  0  0              0 V3000
M  V30 BEGIN CTAB
M  V30 COUNTS 11 11 0 0 0
M  V30 BEGIN ATOM
M  V30 1 O 0.0 0.0 0.0 0
M  V30 2 C -1.0394 -1.1211 0.0 0
M  V30 3 C -2.4058 -1.8102 0.0 0
M  V30 4 C 0.2335 -1.8102 0.0 0
M  V30 5 C -2.0788 0.0934 0.0 0
M  V30 6 C -2.4525 -3.2817 0.0 0
M  V30 7 C 0.1868 -3.2817 0.0 0
M  V30 8 C -1.1795 -3.9708 0.0 0
M  V30 9 C -1.2262 -5.4424 0.0 0
M  V30 10 C 0.0467 -6.1548 0.0 0
M  V30 11 C -2.5927 -6.1548 0.0 0
M  V30 END ATOM
M  V30 BEGIN BOND
M  V30 1 1 1 2
M  V30 2 1 2 3
M  V30 3 1 2 4
M  V30 4 1 2 5
M  V30 5 2 3 6
M  V30 6 1 4 7
M  V30 7 1 6 8
M  V30 8 1 8 9
M  V30 9 2 9 10
M  V30 10 1 9 11
M  V30 11 1 7 8
M  V30 END BOND
M  V30 END CTAB
M  END
>  <Molecule Name>
trans-p-menth-2,8-dien-1-ol

>  <Molecule Name 2>
trans-p-menth-2,8-dien-1-ol

>  <Database>
Essential Oil Database

>  <InChI>
InChI=1S/C10H16O/c1-8(2)9-4-6-10(3,11)7-5-9/h4,6,9,11H,1,5,7H2,2-3H3

>  <InChI-Key>
MKPMHJQMNACGDI-UHFFFAOYSA-N

>  <Smiles>
CC(CC1)(C=CC1C(C)=C)O

>  <Molecular Formula>
C10H16O

$$$$
menthol
Actelion Java MolfileCreator 2.0

  0  0  0  0  0  0              0 V3000
M  V30 BEGIN CTAB
M  V30 COUNTS 11 11 0 0 0
M  V30 BEGIN ATOM
M  V30 1 O 0.0 0.0 0.0 0
M  V30 2 C 1.2708 -0.7279 0.0 0 CFG=1
M  V30 3 C 2.5416 0.0616 0.0 0 CFG=2
M  V30 4 C 1.2214 -2.2085 0.0 0
M  V30 5 C 2.4922 1.6409 0.0 0
M  V30 6 C 3.8124 -0.6662 0.0 0
M  V30 7 C 2.4922 -2.9364 0.0 0 CFG=1
M  V30 8 C 1.1227 2.4429 0.0 0
M  V30 9 C 3.7631 2.4429 0.0 0
M  V30 10 C 3.7631 -2.1468 0.0 0
M  V30 11 C 2.4429 -4.417 0.0 0
M  V30 END ATOM
M  V30 BEGIN BOND
M  V30 1 1 2 1 CFG=1
M  V30 2 1 2 3
M  V30 3 1 2 4
M  V30 4 1 3 5 CFG=3
M  V30 5 1 3 6
M  V30 6 1 4 7
M  V30 7 1 5 8
M  V30 8 1 5 9
M  V30 9 1 6 10
M  V30 10 1 7 11 CFG=1
M  V30 11 1 7 10
M  V30 END BOND
M  V30 BEGIN COLLECTION
M  V30 MDLV30/STEABS ATOMS=(3 2 3 7)
M  V30 END COLLECTION
M  V30 END CTAB
M  END
>  <Molecule Name>
menthol

>  <Molecule Name 2>
menthol

>  <Database>
Essential Oil Database

>  <InChI>
InChI=1S/C10H20O/c1-7(2)9-5-4-8(3)6-10(9)11/h7-11H,4-6H2,1-3H3/t8-,9+,10-/m1/s1

>  <InChI-Key>
NOOLISFMXDJSKH-KXUCPTDWSA-N

>  <Smiles>
CC(C)[C@H](CC[C@@H](C)C1)[C@@H]1O

>  <Molecular Formula>
C10H20O

$$$$
2-propenylpropyltrisulfide
Actelion Java MolfileCreator 2.0

  0  0  0  0  0  0              0 V3000
M  V30 BEGIN CTAB
M  V30 COUNTS 11 10 0 0 0
M  V30 BEGIN ATOM
M  V30 1 S 0.0 0.0 0.0 0
M  V30 2 C -0.0463 -1.4594 0.0 0
M  V30 3 S 1.2162 -2.166 0.0 0
M  V30 4 C -1.4015 -2.166 0.0 0 CFG=1
M  V30 5 S -2.2123 -0.8108 0.0 0 CHG=-1
M  V30 6 C -0.6949 -3.4286 0.0 0
M  V30 7 C -2.7567 -2.8842 0.0 0 RAD=2
M  V30 8 C -1.5173 -4.6911 0.0 0
M  V30 9 S -2.8031 -4.3436 0.0 0 CHG=-1
M  V30 10 S -4.112 -2.0617 0.0 0 CHG=-1
M  V30 11 C -0.7992 -5.9537 0.0 0
M  V30 END ATOM
M  V30 BEGIN BOND
M  V30 1 2 1 2
M  V30 2 1 2 3
M  V30 3 1 2 4
M  V30 4 1 4 5
M  V30 5 1 4 6 CFG=3
M  V30 6 1 4 7
M  V30 7 2 6 8 CFG=2
M  V30 8 1 7 9
M  V30 9 1 7 10
M  V30 10 1 8 11
M  V30 END BOND
M  V30 BEGIN COLLECTION
M  V30 MDLV30/STERAC1 ATOMS=(1 4)
M  V30 END COLLECTION
M  V30 END CTAB
M  END
>  <Molecule Name>
2-propenylpropyltrisulfide

>  <Molecule Name 2>
2-propenylpropyltrisulfide

>  <Database>
Essential Oil Database

>  <InChI>
InChI=1S/C6H9S5/c1-2-3-6(11,4(7)8)5(9)10/h2-3,7-8,11H,1H3,(H,9,10)/p-3/t6-/m1/s1

>  <InChI-Key>
JOVRCJCOXQVAFG-ZCFIWIBFSA-K

>  <Smiles>
CC=CC([C]([S-])[S-])(C(S)=S)[S-]

>  <Molecular Formula>
C6H6S5

$$$$
2-tridecanone
Actelion Java MolfileCreator 2.0

  0  0  0  0  0  0              0 V3000
M  V30 BEGIN CTAB
M  V30 COUNTS 14 13 0 0 0
M  V30 BEGIN ATOM
M  V30 1 O 0.0 0.0 0.0 0
M  V30 2 C -0.0493 1.5777 0.0 0
M  V30 3 C 1.2202 2.3912 0.0 0
M  V30 4 C -1.4174 2.3912 0.0 0
M  V30 5 C 2.4898 1.664 0.0 0
M  V30 6 C 3.7594 2.4652 0.0 0
M  V30 7 C 5.029 1.7379 0.0 0
M  V30 8 C 6.2986 2.5391 0.0 0
M  V30 9 C 7.5681 1.8119 0.0 0
M  V30 10 C 8.8377 2.6131 0.0 0
M  V30 11 C 10.1073 1.8858 0.0 0
M  V30 12 C 11.3769 2.687 0.0 0
M  V30 13 C 12.6465 1.9598 0.0 0
M  V30 14 C 13.9161 2.761 0.0 0
M  V30 END ATOM
M  V30 BEGIN BOND
M  V30 1 2 1 2
M  V30 2 1 2 3
M  V30 3 1 2 4
M  V30 4 1 3 5
M  V30 5 1 5 6
M  V30 6 1 6 7
M  V30 7 1 7 8
M  V30 8 1 8 9
M  V30 9 1 9 10
M  V30 10 1 10 11
M  V30 11 1 11 12
M  V30 12 1 12 13
M  V30 13 1 13 14
M  V30 END BOND
M  V30 END CTAB
M  END
>  <Molecule Name>
2-tridecanone

>  <Molecule Name 2>
2-tridecanone

>  <Database>
Essential Oil Database

>  <InChI>
InChI=1S/C13H26O/c1-3-4-5-6-7-8-9-10-11-12-13(2)14/h3-12H2,1-2H3

>  <InChI-Key>
CYIFVRUOHKNECG-UHFFFAOYSA-N

>  <Smiles>
CCCCCCCCCCCC(C)=O

>  <Molecular Formula>
C13H26O

$$$$
dipropyl disulfide
Actelion Java MolfileCreator 2.0

  0  0  0  0  0  0              0 V3000
M  V30 BEGIN CTAB
M  V30 COUNTS 8 7 0 0 0
M  V30 BEGIN ATOM
M  V30 1 S 0.0 0.0 0.0 0
M  V30 2 S -1.3404 0.7749 0.0 0
M  V30 3 C 1.2566 0.7749 0.0 0
M  V30 4 C -2.6809 0.0837 0.0 0
M  V30 5 C 2.5133 0.0837 0.0 0
M  V30 6 C -4.0213 0.8587 0.0 0
M  V30 7 C 3.77 0.8587 0.0 0
M  V30 8 C -5.3618 0.1675 0.0 0
M  V30 END ATOM
M  V30 BEGIN BOND
M  V30 1 1 1 2
M  V30 2 1 1 3
M  V30 3 1 2 4
M  V30 4 1 3 5
M  V30 5 1 4 6
M  V30 6 1 5 7
M  V30 7 1 6 8
M  V30 END BOND
M  V30 END CTAB
M  END
>  <Molecule Name>
dipropyl disulfide

>  <Molecule Name 2>
dipropyl disulfide

>  <Database>
Essential Oil Database

>  <InChI>
InChI=1S/C6H14S2/c1-3-5-7-8-6-4-2/h3-6H2,1-2H3

>  <InChI-Key>
ALVPFGSHPUPROW-UHFFFAOYSA-N

>  <Smiles>
CCCSSCCC

>  <Molecular Formula>
C6H14S2

$$$$
dipropyl trisulfide
Actelion Java MolfileCreator 2.0

  0  0  0  0  0  0              0 V3000
M  V30 BEGIN CTAB
M  V30 COUNTS 9 8 0 0 0
M  V30 BEGIN ATOM
M  V30 1 S 0.0 0.0 0.0 0
M  V30 2 S -1.3478 -0.6949 0.0 0
M  V30 3 S 1.2636 -0.6949 0.0 0
M  V30 4 C -2.6956 0.0842 0.0 0
M  V30 5 C 2.5272 0.0842 0.0 0
M  V30 6 C -4.0435 -0.6107 0.0 0
M  V30 7 C 3.7908 -0.6107 0.0 0
M  V30 8 C -5.3913 0.1684 0.0 0
M  V30 9 C 5.0544 0.1684 0.0 0
M  V30 END ATOM
M  V30 BEGIN BOND
M  V30 1 1 1 2
M  V30 2 1 1 3
M  V30 3 1 2 4
M  V30 4 1 3 5
M  V30 5 1 4 6
M  V30 6 1 5 7
M  V30 7 1 6 8
M  V30 8 1 7 9
M  V30 END BOND
M  V30 END CTAB
M  END
>  <Molecule Name>
dipropyl trisulfide

>  <Molecule Name 2>
dipropyl trisulfide

>  <Database>
Essential Oil Database

>  <InChI>
InChI=1S/C6H14S3/c1-3-5-7-9-8-6-4-2/h3-6H2,1-2H3

>  <InChI-Key>
GAZXPZNJTZIGBO-UHFFFAOYSA-N

>  <Smiles>
CCCSSSCCC

>  <Molecular Formula>
C6H14S3

$$$$
dodecanol
Actelion Java MolfileCreator 2.0

  0  0  0  0  0  0              0 V3000
M  V30 BEGIN CTAB
M  V30 COUNTS 13 12 0 0 0
M  V30 BEGIN ATOM
M  V30 1 O 0.0 0.0 0.0 0
M  V30 2 C 1.284 0.8152 0.0 0
M  V30 3 C 2.5681 0.0815 0.0 0
M  V30 4 C 3.8522 0.8968 0.0 0
M  V30 5 C 5.1363 0.163 0.0 0
M  V30 6 C 6.4204 0.9783 0.0 0
M  V30 7 C 7.7045 0.2445 0.0 0
M  V30 8 C 8.9886 1.0598 0.0 0
M  V30 9 C 10.2727 0.3261 0.0 0
M  V30 10 C 11.5568 1.1414 0.0 0
M  V30 11 C 12.8408 0.4076 0.0 0
M  V30 12 C 14.1249 1.2229 0.0 0
M  V30 13 C 15.409 0.4891 0.0 0
M  V30 END ATOM
M  V30 BEGIN BOND
M  V30 1 1 1 2
M  V30 2 1 2 3
M  V30 3 1 3 4
M  V30 4 1 4 5
M  V30 5 1 5 6
M  V30 6 1 6 7
M  V30 7 1 7 8
M  V30 8 1 8 9
M  V30 9 1 9 10
M  V30 10 1 10 11
M  V30 11 1 11 12
M  V30 12 1 12 13
M  V30 END BOND
M  V30 END CTAB
M  END
>  <Molecule Name>
dodecanol

>  <Molecule Name 2>
dodecanol

>  <Database>
Essential Oil Database

>  <InChI>
InChI=1S/C12H26O/c1-2-3-4-5-6-7-8-9-10-11-12-13/h13H,2-12H2,1H3

>  <InChI-Key>
LQZZUXJYWNFBMV-UHFFFAOYSA-N

>  <Smiles>
CCCCCCCCCCCCO

>  <Molecular Formula>
C12H26O

$$$$
(e)-1-propenylsec-butyl disulfide
Actelion Java MolfileCreator 2.0

  0  0  0  0  0  0              0 V3000
M  V30 BEGIN CTAB
M  V30 COUNTS 16 15 0 0 0
M  V30 BEGIN ATOM
M  V30 1 S 0.0 0.0 0.0 0
M  V30 2 S -1.5538 0.0485 0.0 0
M  V30 3 C 0.7283 1.3475 0.0 0
M  V30 4 C -2.3308 -1.2018 0.0 0
M  V30 5 C 1.4446 2.695 0.0 0
M  V30 6 C 1.9787 0.6312 0.0 0
M  V30 7 C -0.6191 2.1366 0.0 0
M  V30 8 C -3.1199 -2.4522 0.0 0
M  V30 9 C -1.0804 -1.9302 0.0 0
M  V30 10 C -3.6783 -0.4127 0.0 0
M  V30 11 C 2.9014 2.7436 0.0 0
M  V30 12 C 1.9302 -0.8255 0.0 0
M  V30 13 C -4.6738 -2.4036 0.0 0
M  V30 14 C -1.129 -3.387 0.0 0
M  V30 15 C 3.6176 4.0911 0.0 0
M  V30 16 C -5.4507 -3.654 0.0 0
M  V30 END ATOM
M  V30 BEGIN BOND
M  V30 1 1 1 2
M  V30 2 1 1 3
M  V30 3 1 2 4
M  V30 4 1 3 5
M  V30 5 1 3 6
M  V30 6 1 3 7
M  V30 7 1 4 8
M  V30 8 1 4 9
M  V30 9 1 4 10
M  V30 10 2 5 11
M  V30 11 1 6 12
M  V30 12 2 8 13
M  V30 13 1 9 14
M  V30 14 1 11 15
M  V30 15 1 13 16
M  V30 END BOND
M  V30 END CTAB
M  END
>  <Molecule Name>
(e)-1-propenylsec-butyl disulfide

>  <Molecule Name 2>
(e)-1-propenylsec-butyl disulfide

>  <Database>
Essential Oil Database

>  <InChI>
InChI=1S/C14H26S2/c1-7-11-13(5,9-3)15-16-14(6,10-4)12-8-2/h7-8,11-12H,9-10H2,1-6H3/b11-7+,12-8+

>  <InChI-Key>
TUCDSQMCZBWQPG-MKICQXMISA-N

>  <Smiles>
CCC(C)(/C=C/C)SSC(C)(CC)/C=C/C

>  <Molecular Formula>
C14H26S2

$$$$
nonadecane
Actelion Java MolfileCreator 2.0

  0  0  0  0  0  0              0 V3000
M  V30 BEGIN CTAB
M  V30 COUNTS 19 18 0 0 0
M  V30 BEGIN ATOM
M  V30 1 C 0.0 0.0 0.0 0
M  V30 2 C -1.3457 0.778 0.0 0
M  V30 3 C 1.2616 0.778 0.0 0
M  V30 4 C -2.6915 0.0841 0.0 0
M  V30 5 C 2.5233 0.0841 0.0 0
M  V30 6 C -4.0373 0.8621 0.0 0
M  V30 7 C 3.7849 0.8621 0.0 0
M  V30 8 C -5.3831 0.1682 0.0 0
M  V30 9 C 5.0466 0.1682 0.0 0
M  V30 10 C -6.7288 0.9462 0.0 0
M  V30 11 C 6.3083 0.9462 0.0 0
M  V30 12 C -8.0746 0.2523 0.0 0
M  V30 13 C 7.5699 0.2523 0.0 0
M  V30 14 C -9.4204 1.0303 0.0 0
M  V30 15 C 8.8316 1.0303 0.0 0
M  V30 16 C -10.7662 0.3364 0.0 0
M  V30 17 C 10.0933 0.3364 0.0 0
M  V30 18 C -12.1119 1.1144 0.0 0
M  V30 19 C 11.3549 1.1144 0.0 0
M  V30 END ATOM
M  V30 BEGIN BOND
M  V30 1 1 1 2
M  V30 2 1 1 3
M  V30 3 1 2 4
M  V30 4 1 3 5
M  V30 5 1 4 6
M  V30 6 1 5 7
M  V30 7 1 6 8
M  V30 8 1 7 9
M  V30 9 1 8 10
M  V30 10 1 9 11
M  V30 11 1 10 12
M  V30 12 1 11 13
M  V30 13 1 12 14
M  V30 14 1 13 15
M  V30 15 1 14 16
M  V30 16 1 15 17
M  V30 17 1 16 18
M  V30 18 1 17 19
M  V30 END BOND
M  V30 END CTAB
M  END
>  <Molecule Name>
nonadecane

>  <Molecule Name 2>
nonadecane

>  <Database>
Essential Oil Database

>  <InChI>
InChI=1S/C19H40/c1-3-5-7-9-11-13-15-17-19-18-16-14-12-10-8-6-4-2/h3-19H2,1-2H3

>  <InChI-Key>
LQERIDTXQFOHKA-UHFFFAOYSA-N

>  <Smiles>
CCCCCCCCCCCCCCCCCCC

>  <Molecular Formula>
C19H40

$$$$
octadecane
Actelion Java MolfileCreator 2.0

  0  0  0  0  0  0              0 V3000
M  V30 BEGIN CTAB
M  V30 COUNTS 18 17 0 0 0
M  V30 BEGIN ATOM
M  V30 1 C 0.0 0.0 0.0 0
M  V30 2 C 1.2643 0.7796 0.0 0
M  V30 3 C -1.3486 0.7796 0.0 0
M  V30 4 C 2.5287 0.0842 0.0 0
M  V30 5 C -2.6973 0.0842 0.0 0
M  V30 6 C 3.7931 0.8639 0.0 0
M  V30 7 C -4.0459 0.8639 0.0 0
M  V30 8 C 5.0574 0.1685 0.0 0
M  V30 9 C -5.3946 0.1685 0.0 0
M  V30 10 C 6.3218 0.9482 0.0 0
M  V30 11 C -6.7432 0.9482 0.0 0
M  V30 12 C 7.5862 0.2528 0.0 0
M  V30 13 C -8.0919 0.2528 0.0 0
M  V30 14 C 8.8505 1.0325 0.0 0
M  V30 15 C -9.4406 1.0325 0.0 0
M  V30 16 C 10.1149 0.3371 0.0 0
M  V30 17 C -10.7892 0.3371 0.0 0
M  V30 18 C 11.3793 1.1168 0.0 0
M  V30 END ATOM
M  V30 BEGIN BOND
M  V30 1 1 1 2
M  V30 2 1 1 3
M  V30 3 1 2 4
M  V30 4 1 3 5
M  V30 5 1 4 6
M  V30 6 1 5 7
M  V30 7 1 6 8
M  V30 8 1 7 9
M  V30 9 1 8 10
M  V30 10 1 9 11
M  V30 11 1 10 12
M  V30 12 1 11 13
M  V30 13 1 12 14
M  V30 14 1 13 15
M  V30 15 1 14 16
M  V30 16 1 15 17
M  V30 17 1 16 18
M  V30 END BOND
M  V30 END CTAB
M  END
>  <Molecule Name>
octadecane

>  <Molecule Name 2>
octadecane

>  <Database>
Essential Oil Database

>  <InChI>
InChI=1S/C18H38/c1-3-5-7-9-11-13-15-17-18-16-14-12-10-8-6-4-2/h3-18H2,1-2H3

>  <InChI-Key>
RZJRJXONCZWCBN-UHFFFAOYSA-N

>  <Smiles>
CCCCCCCCCCCCCCCCCC

>  <Molecular Formula>
C18H38

$$$$
tricyclene
Actelion Java MolfileCreator 2.0

  0  0  0  0  0  0              0 V3000
M  V30 BEGIN CTAB
M  V30 COUNTS 10 12 0 0 0
M  V30 BEGIN ATOM
M  V30 1 C 0.0 0.0 0.0 0
M  V30 2 C -1.5954 -0.4022 0.0 0
M  V30 3 C 0.5496 -1.287 0.0 0
M  V30 4 C 1.153 0.8982 0.0 0
M  V30 5 C -0.2279 1.5284 0.0 0
M  V30 6 C -1.649 -2.0914 0.0 0
M  V30 7 C -2.5071 -1.1395 0.0 0
M  V30 8 C -2.373 0.9384 0.0 0
M  V30 9 C -0.1876 -2.5071 0.0 0
M  V30 10 C -0.858 -0.5899 0.0 0
M  V30 END ATOM
M  V30 BEGIN BOND
M  V30 1 1 1 2
M  V30 2 1 1 3
M  V30 3 1 1 4
M  V30 4 1 1 5
M  V30 5 1 2 6
M  V30 6 1 2 7
M  V30 7 1 2 8
M  V30 8 1 3 9
M  V30 9 1 3 10
M  V30 10 1 6 7
M  V30 11 1 6 9
M  V30 12 1 7 10
M  V30 END BOND
M  V30 END CTAB
M  END
>  <Molecule Name>
tricyclene

>  <Molecule Name 2>
tricyclene

>  <Database>
Essential Oil Database

>  <InChI>
InChI=1S/C10H16/c1-9(2)6-4-7-8(5-6)10(7,9)3/h6-8H,4-5H2,1-3H3

>  <InChI-Key>
RRBYUSWBLVXTQN-UHFFFAOYSA-N

>  <Smiles>
CC12C(C)(C)C3CC1C2C3

>  <Molecular Formula>
C10H16

$$$$
vanillin
Actelion Java MolfileCreator 2.0

  0  0  0  0  0  0              0 V3000
M  V30 BEGIN CTAB
M  V30 COUNTS 11 11 0 0 0
M  V30 BEGIN ATOM
M  V30 1 O 0.0 0.0 0.0 0
M  V30 2 C -1.304 -0.6931 0.0 0
M  V30 3 C -2.6081 0.0587 0.0 0
M  V30 4 C -2.6551 1.5625 0.0 0
M  V30 5 C -3.9121 -0.6344 0.0 0
M  V30 6 C -3.9591 2.3261 0.0 0
M  V30 7 C -5.2162 0.1174 0.0 0
M  V30 8 O -4.0061 3.8299 0.0 0
M  V30 9 C -5.2632 1.633 0.0 0
M  V30 10 C -5.3102 4.5935 0.0 0
M  V30 11 O -6.5673 2.3966 0.0 0
M  V30 END ATOM
M  V30 BEGIN BOND
M  V30 1 2 1 2
M  V30 2 1 2 3
M  V30 3 2 3 4
M  V30 4 1 3 5
M  V30 5 1 4 6
M  V30 6 2 5 7
M  V30 7 1 6 8
M  V30 8 2 6 9
M  V30 9 1 8 10
M  V30 10 1 9 11
M  V30 11 1 7 9
M  V30 END BOND
M  V30 END CTAB
M  END
>  <Molecule Name>
vanillin

>  <Molecule Name 2>
vanillin

>  <Database>
Essential Oil Database

>  <InChI>
InChI=1S/C8H8O3/c1-11-8-4-6(5-9)2-3-7(8)10/h2-5,10H,1H3

>  <InChI-Key>
MWOOGOJBHIARFG-UHFFFAOYSA-N

>  <Smiles>
COc(cc(C=O)cc1)c1O

>  <Molecular Formula>
C8H8O3

$$$$
beta-citronellol
Actelion Java MolfileCreator 2.0

  0  0  0  0  0  0              0 V3000
M  V30 BEGIN CTAB
M  V30 COUNTS 11 10 0 0 0
M  V30 BEGIN ATOM
M  V30 1 O 0.0 0.0 0.0 0
M  V30 2 C 1.2872 -0.7085 0.0 0
M  V30 3 C 2.5744 0.1299 0.0 0
M  V30 4 C 3.8617 -0.5786 0.0 0 CFG=1
M  V30 5 C 5.1489 0.2598 0.0 0
M  V30 6 C 3.8144 -2.0666 0.0 0
M  V30 7 C 6.4362 -0.4487 0.0 0
M  V30 8 C 7.7234 0.3897 0.0 0
M  V30 9 C 9.0107 -0.3188 0.0 0
M  V30 10 C 10.2979 0.5196 0.0 0
M  V30 11 C 8.9634 -1.8068 0.0 0
M  V30 END ATOM
M  V30 BEGIN BOND
M  V30 1 1 1 2
M  V30 2 1 2 3
M  V30 3 1 3 4
M  V30 4 1 4 5
M  V30 5 1 4 6 CFG=1
M  V30 6 1 5 7
M  V30 7 1 7 8
M  V30 8 2 8 9
M  V30 9 1 9 10
M  V30 10 1 9 11
M  V30 END BOND
M  V30 BEGIN COLLECTION
M  V30 MDLV30/STEABS ATOMS=(1 4)
M  V30 END COLLECTION
M  V30 END CTAB
M  END
>  <Molecule Name>
beta-citronellol

>  <Molecule Name 2>
beta-citronellol

>  <Database>
Essential Oil Database

>  <InChI>
InChI=1S/C10H20O/c1-9(2)5-4-6-10(3)7-8-11/h5,10-11H,4,6-8H2,1-3H3/t10-/m1/s1

>  <InChI-Key>
QMVPMAAFGQKVCJ-SNVBAGLBSA-N

>  <Smiles>
C[C@H](CCC=C(C)C)CCO

>  <Molecular Formula>
C10H20O

$$$$
carvacrol
Actelion Java MolfileCreator 2.0

  0  0  0  0  0  0              0 V3000
M  V30 BEGIN CTAB
M  V30 COUNTS 11 11 0 0 0
M  V30 BEGIN ATOM
M  V30 1 O 0.0 0.0 0.0 0
M  V30 2 C 1.2524 0.7782 0.0 0
M  V30 3 C 2.5049 0.0607 0.0 0
M  V30 4 C 1.2038 2.3346 0.0 0
M  V30 5 C 3.7573 0.8511 0.0 0
M  V30 6 C 2.4562 -1.3983 0.0 0
M  V30 7 C 2.4562 3.125 0.0 0
M  V30 8 C 3.7087 2.4076 0.0 0
M  V30 9 C 2.4076 4.6815 0.0 0
M  V30 10 C 1.0578 5.4718 0.0 0
M  V30 11 C 3.66 5.4718 0.0 0
M  V30 END ATOM
M  V30 BEGIN BOND
M  V30 1 1 1 2
M  V30 2 2 2 3
M  V30 3 1 2 4
M  V30 4 1 3 5
M  V30 5 1 3 6
M  V30 6 2 4 7
M  V30 7 2 5 8
M  V30 8 1 7 9
M  V30 9 1 9 10
M  V30 10 1 9 11
M  V30 11 1 7 8
M  V30 END BOND
M  V30 END CTAB
M  END
>  <Molecule Name>
carvacrol

>  <Molecule Name 2>
carvacrol

>  <Database>
Essential Oil Database

>  <InChI>
InChI=1S/C10H14O/c1-7(2)9-5-4-8(3)10(11)6-9/h4-7,11H,1-3H3

>  <InChI-Key>
RECUKUPTGUEGMW-UHFFFAOYSA-N

>  <Smiles>
CC(C)c1cc(O)c(C)cc1

>  <Molecular Formula>
C10H14O

$$$$
cis-dihydrocarvone
Actelion Java MolfileCreator 2.0

  0  0  0  0  0  0              0 V3000
M  V30 BEGIN CTAB
M  V30 COUNTS 11 11 0 0 0
M  V30 BEGIN ATOM
M  V30 1 O 0.0 0.0 0.0 0
M  V30 2 C 1.2756 -0.7307 0.0 0
M  V30 3 C 2.5512 0.0619 0.0 0 CFG=1
M  V30 4 C 1.226 -2.2168 0.0 0
M  V30 5 C 3.8269 -0.6687 0.0 0
M  V30 6 C 2.5017 1.6471 0.0 0
M  V30 7 C 2.5017 -2.9475 0.0 0 CFG=2
M  V30 8 C 3.7773 -2.1549 0.0 0
M  V30 9 C 2.4521 -4.4337 0.0 0
M  V30 10 C 1.0774 -5.1768 0.0 0
M  V30 11 C 3.7278 -5.1768 0.0 0
M  V30 END ATOM
M  V30 BEGIN BOND
M  V30 1 2 1 2
M  V30 2 1 2 3
M  V30 3 1 2 4
M  V30 4 1 3 5
M  V30 5 1 3 6 CFG=3
M  V30 6 1 4 7
M  V30 7 1 5 8
M  V30 8 1 7 9 CFG=3
M  V30 9 2 9 10
M  V30 10 1 9 11
M  V30 11 1 7 8
M  V30 END BOND
M  V30 BEGIN COLLECTION
M  V30 MDLV30/STEABS ATOMS=(2 3 7)
M  V30 END COLLECTION
M  V30 END CTAB
M  END
>  <Molecule Name>
cis-dihydrocarvone

>  <Molecule Name 2>
cis-dihydrocarvone

>  <Database>
Essential Oil Database

>  <InChI>
InChI=1S/C10H16O/c1-7(2)9-5-4-8(3)10(11)6-9/h8-9H,1,4-6H2,2-3H3/t8-,9+/m1/s1

>  <InChI-Key>
AZOCECCLWFDTAP-BDAKNGLRSA-N

>  <Smiles>
C[C@H](CC[C@@H](C1)C(C)=C)C1=O

>  <Molecular Formula>
C10H16O

$$$$
geranial
Actelion Java MolfileCreator 2.0

  0  0  0  0  0  0              0 V3000
M  V30 BEGIN CTAB
M  V30 COUNTS 11 10 0 0 0
M  V30 BEGIN ATOM
M  V30 1 O 0.0 0.0 0.0 0
M  V30 2 C -0.803 1.3616 0.0 0
M  V30 3 C -0.1163 2.7232 0.0 0
M  V30 4 C 1.35 2.7698 0.0 0
M  V30 5 C 2.0366 4.1314 0.0 0
M  V30 6 C 2.0366 1.5013 0.0 0
M  V30 7 C 3.503 4.178 0.0 0
M  V30 8 C 4.1896 5.5396 0.0 0
M  V30 9 C 5.656 5.5862 0.0 0
M  V30 10 C 6.3776 6.9478 0.0 0
M  V30 11 C 6.3776 4.3177 0.0 0
M  V30 END ATOM
M  V30 BEGIN BOND
M  V30 1 2 1 2
M  V30 2 1 2 3
M  V30 3 2 3 4
M  V30 4 1 4 5
M  V30 5 1 4 6
M  V30 6 1 5 7
M  V30 7 1 7 8
M  V30 8 2 8 9
M  V30 9 1 9 10
M  V30 10 1 9 11
M  V30 END BOND
M  V30 END CTAB
M  END
>  <Molecule Name>
geranial

>  <Molecule Name 2>
geranial

>  <Database>
Essential Oil Database

>  <InChI>
InChI=1S/C10H16O/c1-9(2)5-4-6-10(3)7-8-11/h5,7-8H,4,6H2,1-3H3/b10-7+

>  <InChI-Key>
WTEVQBCEXWBHNA-JXMROGBWSA-N

>  <Smiles>
CC(C)=CCC/C(\C)=C/C=O

>  <Molecular Formula>
C10H16O

$$$$
geranyl acetate
Actelion Java MolfileCreator 2.0

  0  0  0  0  0  0              0 V3000
M  V30 BEGIN CTAB
M  V30 COUNTS 14 13 0 0 0
M  V30 BEGIN ATOM
M  V30 1 O 0.0 0.0 0.0 0
M  V30 2 C -1.5274 0.0477 0.0 0
M  V30 3 O -2.303 -1.1813 0.0 0
M  V30 4 C -2.303 1.3722 0.0 0
M  V30 5 C -3.8304 -1.1336 0.0 0
M  V30 6 C -4.606 -2.3626 0.0 0
M  V30 7 C -6.1334 -2.3149 0.0 0
M  V30 8 C -6.9091 -3.544 0.0 0
M  V30 9 C -6.9091 -0.9904 0.0 0
M  V30 10 C -8.4365 -3.4963 0.0 0
M  V30 11 C -9.2121 -4.7253 0.0 0
M  V30 12 C -10.7395 -4.6776 0.0 0
M  V30 13 C -11.5032 -5.9067 0.0 0
M  V30 14 C -11.5032 -3.3531 0.0 0
M  V30 END ATOM
M  V30 BEGIN BOND
M  V30 1 2 1 2
M  V30 2 1 2 3
M  V30 3 1 2 4
M  V30 4 1 3 5
M  V30 5 1 5 6
M  V30 6 2 6 7
M  V30 7 1 7 8
M  V30 8 1 7 9
M  V30 9 1 8 10
M  V30 10 1 10 11
M  V30 11 2 11 12
M  V30 12 1 12 13
M  V30 13 1 12 14
M  V30 END BOND
M  V30 END CTAB
M  END
>  <Molecule Name>
geranyl acetate

>  <Molecule Name 2>
geranyl acetate

>  <Database>
Essential Oil Database

>  <InChI>
InChI=1S/C12H20O2/c1-10(2)6-5-7-11(3)8-9-14-12(4)13/h6,8H,5,7,9H2,1-4H3/b11-8+

>  <InChI-Key>
HIGQPQRQIQDZMP-DHZHZOJOSA-N

>  <Smiles>
CC(C)=CCC/C(\C)=C/COC(C)=O

>  <Molecular Formula>
C12H20O2

$$$$
heptanal
Actelion Java MolfileCreator 2.0

  0  0  0  0  0  0              0 V3000
M  V30 BEGIN CTAB
M  V30 COUNTS 8 7 0 0 0
M  V30 BEGIN ATOM
M  V30 1 O 0.0 0.0 0.0 0
M  V30 2 C 1.2815 0.8136 0.0 0
M  V30 3 C 2.563 0.0813 0.0 0
M  V30 4 C 3.8445 0.895 0.0 0
M  V30 5 C 5.126 0.1627 0.0 0
M  V30 6 C 6.4076 0.9763 0.0 0
M  V30 7 C 7.6891 0.244 0.0 0
M  V30 8 C 8.9706 1.0577 0.0 0
M  V30 END ATOM
M  V30 BEGIN BOND
M  V30 1 2 1 2
M  V30 2 1 2 3
M  V30 3 1 3 4
M  V30 4 1 4 5
M  V30 5 1 5 6
M  V30 6 1 6 7
M  V30 7 1 7 8
M  V30 END BOND
M  V30 END CTAB
M  END
>  <Molecule Name>
heptanal

>  <Molecule Name 2>
heptanal

>  <Database>
Essential Oil Database

>  <InChI>
InChI=1S/C7H14O/c1-2-3-4-5-6-7-8/h7H,2-6H2,1H3

>  <InChI-Key>
FXHGMKSSBGDXIY-UHFFFAOYSA-N

>  <Smiles>
CCCCCCC=O

>  <Molecular Formula>
C7H14O

$$$$
linalyl acetate
Actelion Java MolfileCreator 2.0

  0  0  0  0  0  0              0 V3000
M  V30 BEGIN CTAB
M  V30 COUNTS 14 13 0 0 0
M  V30 BEGIN ATOM
M  V30 1 O 0.0 0.0 0.0 0
M  V30 2 C -0.7761 -1.2491 0.0 0
M  V30 3 O -2.3285 -1.2006 0.0 0
M  V30 4 C -0.0606 -2.4983 0.0 0
M  V30 5 C -3.1168 -2.4498 0.0 0 CFG=2
M  V30 6 C -1.8676 -3.1775 0.0 0
M  V30 7 C -3.9051 -3.699 0.0 0
M  V30 8 C -4.463 -1.6615 0.0 0
M  V30 9 C -1.9162 -4.6328 0.0 0
M  V30 10 C -5.4575 -3.6504 0.0 0
M  V30 11 C -6.2458 -4.8996 0.0 0
M  V30 12 C -7.7982 -4.8511 0.0 0
M  V30 13 C -8.5865 -6.1003 0.0 0
M  V30 14 C -8.5865 -3.5049 0.0 0
M  V30 END ATOM
M  V30 BEGIN BOND
M  V30 1 2 1 2
M  V30 2 1 2 3
M  V30 3 1 2 4
M  V30 4 1 5 3 CFG=3
M  V30 5 1 5 6
M  V30 6 1 5 7
M  V30 7 1 5 8
M  V30 8 2 6 9
M  V30 9 1 7 10
M  V30 10 1 10 11
M  V30 11 2 11 12
M  V30 12 1 12 13
M  V30 13 1 12 14
M  V30 END BOND
M  V30 BEGIN COLLECTION
M  V30 MDLV30/STERAC1 ATOMS=(1 5)
M  V30 END COLLECTION
M  V30 END CTAB
M  END
>  <Molecule Name>
linalyl acetate

>  <Molecule Name 2>
linalyl acetate

>  <Database>
Essential Oil Database

>  <InChI>
InChI=1S/C12H20O2/c1-6-12(5,14-11(4)13)9-7-8-10(2)3/h6,8H,1,7,9H2,2-5H3/t12-/m1/s1

>  <InChI-Key>
UWKAYLJWKGQEPM-GFCCVEGCSA-N

>  <Smiles>
CC(CCC=C(C)C)(C=C)OC(C)=O

>  <Molecular Formula>
C12H20O2

$$$$
neral
Actelion Java MolfileCreator 2.0

  0  0  0  0  0  0              0 V3000
M  V30 BEGIN CTAB
M  V30 COUNTS 11 10 0 0 0
M  V30 BEGIN ATOM
M  V30 1 O 0.0 0.0 0.0 0
M  V30 2 C -0.7836 1.359 0.0 0
M  V30 3 C -0.0612 2.7181 0.0 0
M  V30 4 C 1.408 2.7671 0.0 0
M  V30 5 C 2.1304 1.5059 0.0 0
M  V30 6 C 2.1304 4.1261 0.0 0
M  V30 7 C 3.5996 1.5549 0.0 0
M  V30 8 C 4.322 0.2938 0.0 0
M  V30 9 C 3.5384 -0.9672 0.0 0
M  V30 10 C 4.2608 -2.2283 0.0 0
M  V30 11 C 1.9712 -0.9182 0.0 0
M  V30 END ATOM
M  V30 BEGIN BOND
M  V30 1 2 1 2
M  V30 2 1 2 3
M  V30 3 2 3 4
M  V30 4 1 4 5
M  V30 5 1 4 6
M  V30 6 1 5 7
M  V30 7 1 7 8
M  V30 8 2 8 9
M  V30 9 1 9 10
M  V30 10 1 9 11
M  V30 END BOND
M  V30 END CTAB
M  END
>  <Molecule Name>
neral

>  <Molecule Name 2>
neral

>  <Database>
Essential Oil Database

>  <InChI>
InChI=1S/C10H16O/c1-9(2)5-4-6-10(3)7-8-11/h5,7-8H,4,6H2,1-3H3/b10-7-

>  <InChI-Key>
WTEVQBCEXWBHNA-YFHOEESVSA-N

>  <Smiles>
CC(C)=CCC/C(\C)=C\C=O

>  <Molecular Formula>
C10H16O

$$$$
nerol
Actelion Java MolfileCreator 2.0

  0  0  0  0  0  0              0 V3000
M  V30 BEGIN CTAB
M  V30 COUNTS 11 10 0 0 0
M  V30 BEGIN ATOM
M  V30 1 O 0.0 0.0 0.0 0
M  V30 2 C -0.7836 1.359 0.0 0
M  V30 3 C -0.0612 2.7181 0.0 0
M  V30 4 C 1.408 2.7671 0.0 0
M  V30 5 C 2.1304 1.5059 0.0 0
M  V30 6 C 2.1304 4.1261 0.0 0
M  V30 7 C 3.5996 1.5549 0.0 0
M  V30 8 C 4.322 0.2938 0.0 0
M  V30 9 C 3.5384 -0.9672 0.0 0
M  V30 10 C 4.2608 -2.2283 0.0 0
M  V30 11 C 1.9712 -0.9182 0.0 0
M  V30 END ATOM
M  V30 BEGIN BOND
M  V30 1 1 1 2
M  V30 2 1 2 3
M  V30 3 2 3 4
M  V30 4 1 4 5
M  V30 5 1 4 6
M  V30 6 1 5 7
M  V30 7 1 7 8
M  V30 8 2 8 9
M  V30 9 1 9 10
M  V30 10 1 9 11
M  V30 END BOND
M  V30 END CTAB
M  END
>  <Molecule Name>
nerol

>  <Molecule Name 2>
nerol

>  <Database>
Essential Oil Database

>  <InChI>
InChI=1S/C10H18O/c1-9(2)5-4-6-10(3)7-8-11/h5,7,11H,4,6,8H2,1-3H3/b10-7-

>  <InChI-Key>
GLZPCOQZEFWAFX-YFHOEESVSA-N

>  <Smiles>
CC(C)=CCC/C(\C)=C\CO

>  <Molecular Formula>
C10H18O

$$$$
neryl acetate
Actelion Java MolfileCreator 2.0

  0  0  0  0  0  0              0 V3000
M  V30 BEGIN CTAB
M  V30 COUNTS 14 13 0 0 0
M  V30 BEGIN ATOM
M  V30 1 O 0.0 0.0 0.0 0
M  V30 2 C -1.5229 0.0475 0.0 0
M  V30 3 O -2.2844 1.3682 0.0 0
M  V30 4 C -2.2844 -1.1779 0.0 0
M  V30 5 C -3.8073 1.4158 0.0 0
M  V30 6 C -4.5807 2.7365 0.0 0
M  V30 7 C -6.1037 2.7841 0.0 0
M  V30 8 C -6.8652 1.5586 0.0 0
M  V30 9 C -6.8652 4.1048 0.0 0
M  V30 10 C -8.3881 1.6062 0.0 0
M  V30 11 C -9.1615 0.3807 0.0 0
M  V30 12 C -10.6844 0.4283 0.0 0
M  V30 13 C -11.4459 -0.7971 0.0 0
M  V30 14 C -11.4459 1.749 0.0 0
M  V30 END ATOM
M  V30 BEGIN BOND
M  V30 1 2 1 2
M  V30 2 1 2 3
M  V30 3 1 2 4
M  V30 4 1 3 5
M  V30 5 1 5 6
M  V30 6 2 6 7
M  V30 7 1 7 8
M  V30 8 1 7 9
M  V30 9 1 8 10
M  V30 10 1 10 11
M  V30 11 2 11 12
M  V30 12 1 12 13
M  V30 13 1 12 14
M  V30 END BOND
M  V30 END CTAB
M  END
>  <Molecule Name>
neryl acetate

>  <Molecule Name 2>
neryl acetate

>  <Database>
Essential Oil Database

>  <InChI>
InChI=1S/C12H20O2/c1-10(2)6-5-7-11(3)8-9-14-12(4)13/h6,8H,5,7,9H2,1-4H3/b11-8-

>  <InChI-Key>
HIGQPQRQIQDZMP-FLIBITNWSA-N

>  <Smiles>
CC(C)=CCC/C(\C)=C\COC(C)=O

>  <Molecular Formula>
C12H20O2

$$$$
p-cymen-8-ol
Actelion Java MolfileCreator 2.0

  0  0  0  0  0  0              0 V3000
M  V30 BEGIN CTAB
M  V30 COUNTS 11 11 0 0 0
M  V30 BEGIN ATOM
M  V30 1 O 0.0 0.0 0.0 0
M  V30 2 C 1.4417 0.048 0.0 0
M  V30 3 C 1.3937 1.5859 0.0 0
M  V30 4 C 1.3937 -1.3937 0.0 0
M  V30 5 C 2.8835 0.0961 0.0 0
M  V30 6 C 2.6312 2.3669 0.0 0
M  V30 7 C 0.06 2.3669 0.0 0
M  V30 8 C 2.5831 3.9048 0.0 0
M  V30 9 C 0.012 3.9048 0.0 0
M  V30 10 C 1.2495 4.6857 0.0 0
M  V30 11 C 1.2014 6.2236 0.0 0
M  V30 END ATOM
M  V30 BEGIN BOND
M  V30 1 1 1 2
M  V30 2 1 2 3
M  V30 3 1 2 4
M  V30 4 1 2 5
M  V30 5 2 3 6
M  V30 6 1 3 7
M  V30 7 1 6 8
M  V30 8 2 7 9
M  V30 9 2 8 10
M  V30 10 1 10 11
M  V30 11 1 9 10
M  V30 END BOND
M  V30 END CTAB
M  END
>  <Molecule Name>
p-cymen-8-ol

>  <Molecule Name 2>
p-cymen-8-ol

>  <Database>
Essential Oil Database

>  <InChI>
InChI=1S/C10H14O/c1-8-4-6-9(7-5-8)10(2,3)11/h4-7,11H,1-3H3

>  <InChI-Key>
XLPDVYGDNRIQFV-UHFFFAOYSA-N

>  <Smiles>
CC(C)(c1ccc(C)cc1)O

>  <Molecular Formula>
C10H14O

$$$$
thymol
Actelion Java MolfileCreator 2.0

  0  0  0  0  0  0              0 V3000
M  V30 BEGIN CTAB
M  V30 COUNTS 11 11 0 0 0
M  V30 BEGIN ATOM
M  V30 1 O 0.0 0.0 0.0 0
M  V30 2 C 1.2708 -0.7279 0.0 0
M  V30 3 C 2.5416 0.0616 0.0 0
M  V30 4 C 1.2214 -2.2085 0.0 0
M  V30 5 C 3.8124 -0.6662 0.0 0
M  V30 6 C 2.4922 1.6409 0.0 0
M  V30 7 C 2.4922 -2.9364 0.0 0
M  V30 8 C 3.7631 -2.1468 0.0 0
M  V30 9 C 1.1227 2.4429 0.0 0
M  V30 10 C 3.7631 2.4429 0.0 0
M  V30 11 C 2.4429 -4.417 0.0 0
M  V30 END ATOM
M  V30 BEGIN BOND
M  V30 1 1 1 2
M  V30 2 2 2 3
M  V30 3 1 2 4
M  V30 4 1 3 5
M  V30 5 1 3 6
M  V30 6 2 4 7
M  V30 7 2 5 8
M  V30 8 1 6 9
M  V30 9 1 6 10
M  V30 10 1 7 11
M  V30 11 1 7 8
M  V30 END BOND
M  V30 END CTAB
M  END
>  <Molecule Name>
thymol

>  <Molecule Name 2>
thymol

>  <Database>
Essential Oil Database

>  <InChI>
InChI=1S/C10H14O/c1-7(2)9-5-4-8(3)6-10(9)11/h4-7,11H,1-3H3

>  <InChI-Key>
MGSRCZKZVOBKFT-UHFFFAOYSA-N

>  <Smiles>
CC(C)c(ccc(C)c1)c1O

>  <Molecular Formula>
C10H14O

$$$$
beta-cubebene
Actelion Java MolfileCreator 2.0

  0  0  0  0  0  0              0 V3000
M  V30 BEGIN CTAB
M  V30 COUNTS 15 17 0 0 0
M  V30 BEGIN ATOM
M  V30 1 C 0.0 0.0 0.0 0
M  V30 2 C -1.2264 1.0162 0.0 0
M  V30 3 C 1.425 0.4205 0.0 0 CFG=1
M  V30 4 C -0.1284 -1.4717 0.0 0
M  V30 5 C 2.2193 -0.8176 0.0 0 CFG=2
M  V30 6 C 2.8967 0.5373 0.0 0 CFG=2
M  V30 7 C 1.2498 -1.9623 0.0 0
M  V30 8 C 3.0135 -2.0557 0.0 0 CFG=1
M  V30 9 C 4.3685 0.6541 0.0 0 CFG=2
M  V30 10 C 4.4853 -1.9389 0.0 0
M  V30 11 C 2.2893 -3.364 0.0 0
M  V30 12 C 4.9992 2.0557 0.0 0
M  V30 13 C 5.1628 -0.584 0.0 0
M  V30 14 C 4.1115 3.3873 0.0 0
M  V30 15 C 6.471 2.1725 0.0 0
M  V30 END ATOM
M  V30 BEGIN BOND
M  V30 1 2 1 2
M  V30 2 1 3 1 CFG=3
M  V30 3 1 1 4
M  V30 4 1 5 3 CFG=1
M  V30 5 1 6 3 CFG=1
M  V30 6 1 4 7
M  V30 7 1 5 8
M  V30 8 1 6 9
M  V30 9 1 8 10
M  V30 10 1 8 11 CFG=1
M  V30 11 1 9 12 CFG=3
M  V30 12 1 9 13
M  V30 13 1 12 14
M  V30 14 1 12 15
M  V30 15 1 5 6
M  V30 16 1 5 7
M  V30 17 1 10 13
M  V30 END BOND
M  V30 BEGIN COLLECTION
M  V30 MDLV30/STEABS ATOMS=(5 3 5 6 8 9)
M  V30 END COLLECTION
M  V30 END CTAB
M  END
>  <Molecule Name>
beta-cubebene

>  <Molecule Name 2>
beta-cubebene

>  <Database>
Essential Oil Database

>  <InChI>
InChI=1S/C15H24/c1-9(2)12-6-5-11(4)15-8-7-10(3)13(15)14(12)15/h9,11-14H,3,5-8H2,1-2,4H3/t11-,12+,13-,14-,15+/m1/s1

>  <InChI-Key>
FSRZGYRCMPZNJF-KHMAMNHCSA-N

>  <Smiles>
CC(C)[C@H]1[C@H]([C@H]2C(CC3)=C)[C@@]23[C@H](C)CC1

>  <Molecular Formula>
C15H24

$$$$
elemicin
Actelion Java MolfileCreator 2.0

  0  0  0  0  0  0              0 V3000
M  V30 BEGIN CTAB
M  V30 COUNTS 15 15 0 0 0
M  V30 BEGIN ATOM
M  V30 1 O 0.0 0.0 0.0 0
M  V30 2 C 1.2643 -0.7242 0.0 0
M  V30 3 C -1.3625 -0.7242 0.0 0
M  V30 4 C 2.5286 0.0613 0.0 0
M  V30 5 C 1.2152 -2.1972 0.0 0
M  V30 6 O 2.4795 1.6325 0.0 0
M  V30 7 C 3.793 -0.6628 0.0 0
M  V30 8 O -0.1473 -2.9214 0.0 0
M  V30 9 C 2.4795 -2.9214 0.0 0
M  V30 10 C 1.117 2.4182 0.0 0
M  V30 11 C 3.7439 -2.1358 0.0 0
M  V30 12 C -1.5098 -2.1236 0.0 0
M  V30 13 C 5.0082 -2.8601 0.0 0
M  V30 14 C 4.9591 -4.3331 0.0 0
M  V30 15 C 6.2235 -5.0696 0.0 0
M  V30 END ATOM
M  V30 BEGIN BOND
M  V30 1 1 1 2
M  V30 2 1 1 3
M  V30 3 2 2 4
M  V30 4 1 2 5
M  V30 5 1 4 6
M  V30 6 1 4 7
M  V30 7 1 5 8
M  V30 8 2 5 9
M  V30 9 1 6 10
M  V30 10 2 7 11
M  V30 11 1 8 12
M  V30 12 1 11 13
M  V30 13 1 13 14
M  V30 14 2 14 15
M  V30 15 1 9 11
M  V30 END BOND
M  V30 END CTAB
M  END
>  <Molecule Name>
elemicin

>  <Molecule Name 2>
elemicin

>  <Database>
Essential Oil Database

>  <InChI>
InChI=1S/C12H16O3/c1-5-6-9-7-10(13-2)12(15-4)11(8-9)14-3/h5,7-8H,1,6H2,2-4H3

>  <InChI-Key>
BPLQKQKXWHCZSS-UHFFFAOYSA-N

>  <Smiles>
COc1cc(CC=C)cc(OC)c1OC

>  <Molecular Formula>
C12H16O3

$$$$
1-nonen-3-ol
Actelion Java MolfileCreator 2.0

  0  0  0  0  0  0              0 V3000
M  V30 BEGIN CTAB
M  V30 COUNTS 10 9 0 0 0
M  V30 BEGIN ATOM
M  V30 1 O 0.0 0.0 0.0 0
M  V30 2 C -0.0466 -1.469 0.0 0 CFG=2
M  V30 3 C -1.4107 -2.1685 0.0 0
M  V30 4 C 1.2241 -2.1685 0.0 0
M  V30 5 C -2.7747 -1.3407 0.0 0
M  V30 6 C 2.4949 -1.3407 0.0 0
M  V30 7 C 3.7657 -2.0402 0.0 0
M  V30 8 C 5.0365 -1.2125 0.0 0
M  V30 9 C 6.3073 -1.912 0.0 0
M  V30 10 C 7.5781 -1.0842 0.0 0
M  V30 END ATOM
M  V30 BEGIN BOND
M  V30 1 1 2 1 CFG=1
M  V30 2 1 2 3
M  V30 3 1 2 4
M  V30 4 2 3 5
M  V30 5 1 4 6
M  V30 6 1 6 7
M  V30 7 1 7 8
M  V30 8 1 8 9
M  V30 9 1 9 10
M  V30 END BOND
M  V30 BEGIN COLLECTION
M  V30 MDLV30/STERAC1 ATOMS=(1 2)
M  V30 END COLLECTION
M  V30 END CTAB
M  END
>  <Molecule Name>
1-nonen-3-ol

>  <Molecule Name 2>
1-nonen-3-ol

>  <Database>
Essential Oil Database

>  <InChI>
InChI=1S/C9H18O/c1-3-5-6-7-8-9(10)4-2/h4,9-10H,2-3,5-8H2,1H3/t9-/m1/s1

>  <InChI-Key>
DWUPJMHAPOQKGJ-SECBINFHSA-N

>  <Smiles>
CCCCCCC(C=C)O

>  <Molecular Formula>
C9H18O

$$$$
2-phenylethyl-2-methylbutyrate
Actelion Java MolfileCreator 2.0

  0  0  0  0  0  0              0 V3000
M  V30 BEGIN CTAB
M  V30 COUNTS 15 15 0 0 0
M  V30 BEGIN ATOM
M  V30 1 O 0.0 0.0 0.0 0
M  V30 2 C -0.0488 1.5641 0.0 0
M  V30 3 O 1.2098 2.3585 0.0 0
M  V30 4 C -1.4053 2.3585 0.0 0 CFG=2
M  V30 5 C 2.4684 1.6375 0.0 0
M  V30 6 C -2.7617 1.6375 0.0 0
M  V30 7 C -1.4542 3.9226 0.0 0
M  V30 8 C 3.7271 2.4318 0.0 0
M  V30 9 C -4.1182 2.4318 0.0 0
M  V30 10 C 4.9858 1.7108 0.0 0
M  V30 11 C 6.2445 2.5051 0.0 0
M  V30 12 C 4.9369 0.2444 0.0 0
M  V30 13 C 7.5032 1.7841 0.0 0
M  V30 14 C 6.1956 -0.4765 0.0 0
M  V30 15 C 7.4543 0.3177 0.0 0
M  V30 END ATOM
M  V30 BEGIN BOND
M  V30 1 2 1 2
M  V30 2 1 2 3
M  V30 3 1 2 4
M  V30 4 1 3 5
M  V30 5 1 4 6
M  V30 6 1 4 7 CFG=3
M  V30 7 1 5 8
M  V30 8 1 6 9
M  V30 9 1 8 10
M  V30 10 2 10 11
M  V30 11 1 10 12
M  V30 12 1 11 13
M  V30 13 2 12 14
M  V30 14 2 13 15
M  V30 15 1 14 15
M  V30 END BOND
M  V30 BEGIN COLLECTION
M  V30 MDLV30/STERAC1 ATOMS=(1 4)
M  V30 END COLLECTION
M  V30 END CTAB
M  END
>  <Molecule Name>
2-phenylethyl-2-methylbutyrate

>  <Molecule Name 2>
2-phenylethyl-2-methylbutyrate

>  <Database>
Essential Oil Database

>  <InChI>
InChI=1S/C13H18O2/c1-3-11(2)13(14)15-10-9-12-7-5-4-6-8-12/h4-8,11H,3,9-10H2,1-2H3/t11-/m0/s1

>  <InChI-Key>
KVKKTLBBYFABAZ-NSHDSACASA-N

>  <Smiles>
CCC(C)C(OCCc1ccccc1)=O

>  <Molecular Formula>
C13H18O2

$$$$
alpha-muurolene
Actelion Java MolfileCreator 2.0

  0  0  0  0  0  0              0 V3000
M  V30 BEGIN CTAB
M  V30 COUNTS 15 16 0 0 0
M  V30 BEGIN ATOM
M  V30 1 C 0.0 0.0 0.0 0
M  V30 2 C -1.3709 -0.7286 0.0 0
M  V30 3 C 1.2721 -0.7286 0.0 0 CFG=2
M  V30 4 C -0.0494 1.5809 0.0 0
M  V30 5 C -1.4203 -2.2107 0.0 0
M  V30 6 C 1.2227 -2.2107 0.0 0 CFG=2
M  V30 7 C 2.5442 0.0617 0.0 0
M  V30 8 C -0.1482 -2.9518 0.0 0 CFG=2
M  V30 9 C 2.4948 -2.9518 0.0 0
M  V30 10 C 3.8163 -0.6669 0.0 0
M  V30 11 C -0.1976 -4.4339 0.0 0
M  V30 12 C 3.7669 -2.1366 0.0 0
M  V30 13 C 1.0745 -5.1749 0.0 0
M  V30 14 C -1.5685 -5.1749 0.0 0
M  V30 15 C 5.0391 -2.8777 0.0 0
M  V30 END ATOM
M  V30 BEGIN BOND
M  V30 1 2 1 2
M  V30 2 1 1 3
M  V30 3 1 1 4
M  V30 4 1 2 5
M  V30 5 1 3 6
M  V30 6 1 3 7 CFG=1
M  V30 7 1 5 8
M  V30 8 1 6 9 CFG=1
M  V30 9 1 7 10
M  V30 10 1 8 11 CFG=3
M  V30 11 2 9 12
M  V30 12 1 11 13
M  V30 13 1 11 14
M  V30 14 1 12 15
M  V30 15 1 6 8
M  V30 16 1 10 12
M  V30 END BOND
M  V30 BEGIN COLLECTION
M  V30 MDLV30/STEABS ATOMS=(3 3 6 8)
M  V30 END COLLECTION
M  V30 END CTAB
M  END
>  <Molecule Name>
alpha-muurolene

>  <Molecule Name 2>
alpha-muurolene

>  <Database>
Essential Oil Database

>  <InChI>
InChI=1S/C15H24/c1-10(2)13-8-6-12(4)14-7-5-11(3)9-15(13)14/h6,9-10,13-15H,5,7-8H2,1-4H3/t13-,14+,15-/m0/s1

>  <InChI-Key>
QMAYBMKBYCGXDH-ZNMIVQPWSA-N

>  <Smiles>
CC(C)[C@H]1[C@@H]2C=C(C)CC[C@@H]2C(C)=CC1

>  <Molecular Formula>
C15H24

$$$$
carotol
Actelion Java MolfileCreator 2.0

  0  0  0  0  0  0              0 V3000
M  V30 BEGIN CTAB
M  V30 COUNTS 16 17 0 0 0
M  V30 BEGIN ATOM
M  V30 1 O 0.0 0.0 0.0 0
M  V30 2 C 0.2299 1.5246 0.0 0 CFG=2
M  V30 3 C 0.1815 3.0735 0.0 0 CFG=1
M  V30 4 C -1.2463 1.1011 0.0 0 CFG=1
M  V30 5 C 1.3431 0.6534 0.0 0
M  V30 6 C 1.2947 4.0416 0.0 0
M  V30 7 C -1.2947 3.5938 0.0 0
M  V30 8 C -0.1452 4.5982 0.0 0
M  V30 9 C -1.7666 -0.2783 0.0 0
M  V30 10 C -2.166 2.3596 0.0 0
M  V30 11 C 2.7589 1.0406 0.0 0
M  V30 12 C 2.7105 3.7511 0.0 0
M  V30 13 C -3.2792 -0.5445 0.0 0
M  V30 14 C -0.8228 -1.331 0.0 0
M  V30 15 C 3.376 2.4322 0.0 0
M  V30 16 C 4.8281 2.4806 0.0 0
M  V30 END ATOM
M  V30 BEGIN BOND
M  V30 1 1 2 1 CFG=1
M  V30 2 1 2 3
M  V30 3 1 2 4
M  V30 4 1 2 5
M  V30 5 1 3 6
M  V30 6 1 3 7
M  V30 7 1 3 8 CFG=1
M  V30 8 1 4 9 CFG=1
M  V30 9 1 4 10
M  V30 10 1 5 11
M  V30 11 1 6 12
M  V30 12 1 9 13
M  V30 13 1 9 14
M  V30 14 1 11 15
M  V30 15 1 15 16
M  V30 16 1 7 10
M  V30 17 2 12 15
M  V30 END BOND
M  V30 BEGIN COLLECTION
M  V30 MDLV30/STEABS ATOMS=(3 2 3 4)
M  V30 END COLLECTION
M  V30 END CTAB
M  END
>  <Molecule Name>
carotol

>  <Molecule Name 2>
carotol

>  <Database>
Essential Oil Database

>  <InChI>
InChI=1S/C15H26O/c1-11(2)13-7-9-14(4)8-5-12(3)6-10-15(13,14)16/h5,11,13,16H,6-10H2,1-4H3/t13-,14+,15+/m1/s1

>  <InChI-Key>
XZYQCFABZDVOPN-ILXRZTDVSA-N

>  <Smiles>
CC(C)[C@@H](CC[C@]1(C)CC=C(C)CC2)[C@]12O

>  <Molecular Formula>
C15H26O

$$$$
dehydrocostus lactone
Actelion Java MolfileCreator 2.0

  0  0  0  0  0  0              0 V3000
M  V30 BEGIN CTAB
M  V30 COUNTS 17 19 0 0 0
M  V30 BEGIN ATOM
M  V30 1 O 0.0 0.0 0.0 0
M  V30 2 C 1.1243 0.9777 0.0 0
M  V30 3 O 2.5298 0.611 0.0 0
M  V30 4 C 1.0021 2.542 0.0 0
M  V30 5 C 3.2997 1.9187 0.0 0 CFG=1
M  V30 6 C -0.3055 3.4097 0.0 0
M  V30 7 C 2.3709 3.1409 0.0 0 CFG=1
M  V30 8 C 4.7663 1.9676 0.0 0 CFG=1
M  V30 9 C 2.6642 4.6685 0.0 0
M  V30 10 C 5.5363 0.7577 0.0 0
M  V30 11 C 5.6463 3.1897 0.0 0 CFG=2
M  V30 12 C 3.9719 5.3896 0.0 0
M  V30 13 C 4.9374 -0.611 0.0 0
M  V30 14 C 6.9417 1.2221 0.0 0
M  V30 15 C 5.2552 4.7174 0.0 0
M  V30 16 C 7.0151 2.6887 0.0 0
M  V30 17 C 6.3795 5.6951 0.0 0
M  V30 END ATOM
M  V30 BEGIN BOND
M  V30 1 2 1 2
M  V30 2 1 2 3
M  V30 3 1 2 4
M  V30 4 1 5 3 CFG=1
M  V30 5 2 4 6
M  V30 6 1 4 7
M  V30 7 1 5 8
M  V30 8 1 7 9 CFG=3
M  V30 9 1 8 10 CFG=3
M  V30 10 1 8 11
M  V30 11 1 9 12
M  V30 12 2 10 13
M  V30 13 1 10 14
M  V30 14 1 11 15 CFG=3
M  V30 15 1 11 16
M  V30 16 2 15 17
M  V30 17 1 5 7
M  V30 18 1 12 15
M  V30 19 1 14 16
M  V30 END BOND
M  V30 BEGIN COLLECTION
M  V30 MDLV30/STEABS ATOMS=(4 5 7 8 11)
M  V30 END COLLECTION
M  V30 END CTAB
M  END
>  <Molecule Name>
dehydrocostus lactone

>  <Molecule Name 2>
dehydrocostus lactone

>  <Database>
Essential Oil Database

>  <InChI>
InChI=1S/C15H18O2/c1-8-4-7-12-10(3)15(16)17-14(12)13-9(2)5-6-11(8)13/h11-14H,1-7H2/t11-,12-,13-,14-/m0/s1

>  <InChI-Key>
NETSQGRTUNRXEO-XUXIUFHCSA-N

>  <Smiles>
C=C(CC[C@H]1C(CC[C@H]2C3=C)=C)[C@@H]1[C@H]2OC3=O

>  <Molecular Formula>
C15H18O2

$$$$
dodecanoic acid
Actelion Java MolfileCreator 2.0

  0  0  0  0  0  0              0 V3000
M  V30 BEGIN CTAB
M  V30 COUNTS 14 13 0 0 0
M  V30 BEGIN ATOM
M  V30 1 O 0.0 0.0 0.0 0
M  V30 2 C -0.0473 -1.4904 0.0 0
M  V30 3 O -1.4313 -2.1883 0.0 0
M  V30 4 C 1.242 -2.1883 0.0 0
M  V30 5 C 2.5314 -1.3603 0.0 0
M  V30 6 C 3.8208 -2.0582 0.0 0
M  V30 7 C 5.1102 -1.2302 0.0 0
M  V30 8 C 6.3995 -1.9281 0.0 0
M  V30 9 C 7.6889 -1.1001 0.0 0
M  V30 10 C 8.9783 -1.798 0.0 0
M  V30 11 C 10.2677 -0.9699 0.0 0
M  V30 12 C 11.5571 -1.6679 0.0 0
M  V30 13 C 12.8464 -0.8398 0.0 0
M  V30 14 C 14.1358 -1.5377 0.0 0
M  V30 END ATOM
M  V30 BEGIN BOND
M  V30 1 2 1 2
M  V30 2 1 2 3
M  V30 3 1 2 4
M  V30 4 1 4 5
M  V30 5 1 5 6
M  V30 6 1 6 7
M  V30 7 1 7 8
M  V30 8 1 8 9
M  V30 9 1 9 10
M  V30 10 1 10 11
M  V30 11 1 11 12
M  V30 12 1 12 13
M  V30 13 1 13 14
M  V30 END BOND
M  V30 END CTAB
M  END
>  <Molecule Name>
dodecanoic acid

>  <Molecule Name 2>
dodecanoic acid

>  <Database>
Essential Oil Database

>  <InChI>
InChI=1S/C12H24O2/c1-2-3-4-5-6-7-8-9-10-11-12(13)14/h2-11H2,1H3,(H,13,14)

>  <InChI-Key>
POULHZVOKOAJMA-UHFFFAOYSA-N

>  <Smiles>
CCCCCCCCCCCC(O)=O

>  <Molecular Formula>
C12H24O2

$$$$
gamma-muurolene
Actelion Java MolfileCreator 2.0

  0  0  0  0  0  0              0 V3000
M  V30 BEGIN CTAB
M  V30 COUNTS 15 16 0 0 0
M  V30 BEGIN ATOM
M  V30 1 C 0.0 0.0 0.0 0
M  V30 2 C -0.0494 1.5809 0.0 0
M  V30 3 C 1.2721 -0.7286 0.0 0 CFG=2
M  V30 4 C -1.3709 -0.7286 0.0 0
M  V30 5 C 1.2227 -2.2107 0.0 0 CFG=1
M  V30 6 C 2.5442 0.0617 0.0 0
M  V30 7 C -1.4203 -2.2107 0.0 0
M  V30 8 C 2.4948 -2.9518 0.0 0
M  V30 9 C -0.1482 -2.9518 0.0 0 CFG=1
M  V30 10 C 3.8163 -0.6669 0.0 0
M  V30 11 C 3.7669 -2.1366 0.0 0
M  V30 12 C -0.1976 -4.4339 0.0 0
M  V30 13 C 5.0391 -2.8777 0.0 0
M  V30 14 C 1.0745 -5.1749 0.0 0
M  V30 15 C -1.5685 -5.1749 0.0 0
M  V30 END ATOM
M  V30 BEGIN BOND
M  V30 1 2 1 2
M  V30 2 1 1 3
M  V30 3 1 1 4
M  V30 4 1 3 5
M  V30 5 1 3 6 CFG=1
M  V30 6 1 4 7
M  V30 7 1 5 8 CFG=1
M  V30 8 1 5 9
M  V30 9 1 6 10
M  V30 10 2 8 11
M  V30 11 1 9 12 CFG=3
M  V30 12 1 11 13
M  V30 13 1 12 14
M  V30 14 1 12 15
M  V30 15 1 7 9
M  V30 16 1 10 11
M  V30 END BOND
M  V30 BEGIN COLLECTION
M  V30 MDLV30/STEABS ATOMS=(3 3 5 9)
M  V30 END COLLECTION
M  V30 END CTAB
M  END
>  <Molecule Name>
gamma-muurolene

>  <Molecule Name 2>
gamma-muurolene

>  <Database>
Essential Oil Database

>  <InChI>
InChI=1S/C15H24/c1-10(2)13-8-6-12(4)14-7-5-11(3)9-15(13)14/h9-10,13-15H,4-8H2,1-3H3/t13-,14+,15-/m0/s1

>  <InChI-Key>
WRHGORWNJGOVQY-ZNMIVQPWSA-N

>  <Smiles>
CC(C)[C@H](CC1)[C@@H]2C=C(C)CC[C@@H]2C1=C

>  <Molecular Formula>
C15H24

$$$$
isoterpinolene
Actelion Java MolfileCreator 2.0

  0  0  0  0  0  0              0 V3000
M  V30 BEGIN CTAB
M  V30 COUNTS 10 10 0 0 0
M  V30 BEGIN ATOM
M  V30 1 C 0.0 0.0 0.0 0
M  V30 2 C -0.048 -1.4406 0.0 0
M  V30 3 C -1.3325 0.7683 0.0 0
M  V30 4 C 1.2365 0.7683 0.0 0
M  V30 5 C 1.1885 -2.1609 0.0 0
M  V30 6 C -1.3806 -2.1609 0.0 0
M  V30 7 C -1.3806 2.305 0.0 0
M  V30 8 C 1.1885 2.305 0.0 0
M  V30 9 C -0.144 3.0853 0.0 0 CFG=2
M  V30 10 C -0.192 4.622 0.0 0
M  V30 END ATOM
M  V30 BEGIN BOND
M  V30 1 2 1 2
M  V30 2 1 1 3
M  V30 3 1 1 4
M  V30 4 1 2 5
M  V30 5 1 2 6
M  V30 6 2 3 7
M  V30 7 1 4 8
M  V30 8 1 7 9
M  V30 9 1 9 10 CFG=1
M  V30 10 1 8 9
M  V30 END BOND
M  V30 BEGIN COLLECTION
M  V30 MDLV30/STERAC1 ATOMS=(1 9)
M  V30 END COLLECTION
M  V30 END CTAB
M  END
>  <Molecule Name>
isoterpinolene

>  <Molecule Name 2>
isoterpinolene

>  <Database>
Essential Oil Database

>  <InChI>
InChI=1S/C10H16/c1-8(2)10-6-4-9(3)5-7-10/h4,6,9H,5,7H2,1-3H3/t9-/m1/s1

>  <InChI-Key>
CIPXOBMYVWRNLL-SECBINFHSA-N

>  <Smiles>
CC(CC1)C=CC1=C(C)C

>  <Molecular Formula>
C10H16

$$$$
naphthalene
Actelion Java MolfileCreator 2.0

  0  0  0  0  0  0              0 V3000
M  V30 BEGIN CTAB
M  V30 COUNTS 10 11 0 0 0
M  V30 BEGIN ATOM
M  V30 1 C 0.0 0.0 0.0 0
M  V30 2 C -0.0479 1.5351 0.0 0
M  V30 3 C -1.3312 -0.7195 0.0 0
M  V30 4 C 1.2352 -0.7195 0.0 0
M  V30 5 C -1.3791 2.3146 0.0 0
M  V30 6 C 1.1873 2.3146 0.0 0
M  V30 7 C -2.6624 0.0599 0.0 0
M  V30 8 C 2.4705 0.0599 0.0 0
M  V30 9 C -2.7104 1.595 0.0 0
M  V30 10 C 2.4225 1.595 0.0 0
M  V30 END ATOM
M  V30 BEGIN BOND
M  V30 1 1 1 2
M  V30 2 1 1 3
M  V30 3 2 1 4
M  V30 4 1 2 5
M  V30 5 2 2 6
M  V30 6 2 3 7
M  V30 7 1 4 8
M  V30 8 2 5 9
M  V30 9 1 6 10
M  V30 10 1 7 9
M  V30 11 2 8 10
M  V30 END BOND
M  V30 END CTAB
M  END
>  <Molecule Name>
naphthalene

>  <Molecule Name 2>
naphthalene

>  <Database>
Essential Oil Database

>  <InChI>
InChI=1S/C10H8/c1-2-6-10-8-4-3-7-9(10)5-1/h1-8H

>  <InChI-Key>
UFWIBTONFRDIAS-UHFFFAOYSA-N

>  <Smiles>
c1ccc(cccc2)c2c1

>  <Molecular Formula>
C10H8

$$$$
nonanal
Actelion Java MolfileCreator 2.0

  0  0  0  0  0  0              0 V3000
M  V30 BEGIN CTAB
M  V30 COUNTS 10 9 0 0 0
M  V30 BEGIN ATOM
M  V30 1 O 0.0 0.0 0.0 0
M  V30 2 C 1.282 0.814 0.0 0
M  V30 3 C 2.5641 0.0814 0.0 0
M  V30 4 C 3.8462 0.8954 0.0 0
M  V30 5 C 5.1283 0.1628 0.0 0
M  V30 6 C 6.4104 0.9768 0.0 0
M  V30 7 C 7.6925 0.2442 0.0 0
M  V30 8 C 8.9746 1.0582 0.0 0
M  V30 9 C 10.2567 0.3256 0.0 0
M  V30 10 C 11.5388 1.1396 0.0 0
M  V30 END ATOM
M  V30 BEGIN BOND
M  V30 1 2 1 2
M  V30 2 1 2 3
M  V30 3 1 3 4
M  V30 4 1 4 5
M  V30 5 1 5 6
M  V30 6 1 6 7
M  V30 7 1 7 8
M  V30 8 1 8 9
M  V30 9 1 9 10
M  V30 END BOND
M  V30 END CTAB
M  END
>  <Molecule Name>
nonanal

>  <Molecule Name 2>
nonanal

>  <Database>
Essential Oil Database

>  <InChI>
InChI=1S/C9H18O/c1-2-3-4-5-6-7-8-9-10/h9H,2-8H2,1H3

>  <InChI-Key>
GYHFUZHODSMOHU-UHFFFAOYSA-N

>  <Smiles>
CCCCCCCCC=O

>  <Molecular Formula>
C9H18O

$$$$
nonanoic acid
Actelion Java MolfileCreator 2.0

  0  0  0  0  0  0              0 V3000
M  V30 BEGIN CTAB
M  V30 COUNTS 11 10 0 0 0
M  V30 BEGIN ATOM
M  V30 1 O 0.0 0.0 0.0 0
M  V30 2 C -0.0468 -1.4772 0.0 0
M  V30 3 O -1.4186 -2.2041 0.0 0
M  V30 4 C 1.231 -2.2041 0.0 0
M  V30 5 C 2.5089 -1.3717 0.0 0
M  V30 6 C 3.7868 -2.0868 0.0 0
M  V30 7 C 5.0647 -1.2544 0.0 0
M  V30 8 C 6.3426 -1.9813 0.0 0
M  V30 9 C 7.6205 -1.1489 0.0 0
M  V30 10 C 8.8985 -1.8641 0.0 0
M  V30 11 C 10.1764 -1.0317 0.0 0
M  V30 END ATOM
M  V30 BEGIN BOND
M  V30 1 2 1 2
M  V30 2 1 2 3
M  V30 3 1 2 4
M  V30 4 1 4 5
M  V30 5 1 5 6
M  V30 6 1 6 7
M  V30 7 1 7 8
M  V30 8 1 8 9
M  V30 9 1 9 10
M  V30 10 1 10 11
M  V30 END BOND
M  V30 END CTAB
M  END
>  <Molecule Name>
nonanoic acid

>  <Molecule Name 2>
nonanoic acid

>  <Database>
Essential Oil Database

>  <InChI>
InChI=1S/C9H18O2/c1-2-3-4-5-6-7-8-9(10)11/h2-8H2,1H3,(H,10,11)

>  <InChI-Key>
FBUKVWPVBMHYJY-UHFFFAOYSA-N

>  <Smiles>
CCCCCCCCC(O)=O

>  <Molecular Formula>
C9H18O2

$$$$
octanol
Actelion Java MolfileCreator 2.0

  0  0  0  0  0  0              0 V3000
M  V30 BEGIN CTAB
M  V30 COUNTS 9 8 0 0 0
M  V30 BEGIN ATOM
M  V30 1 O 0.0 0.0 0.0 0
M  V30 2 C 1.284 0.8152 0.0 0
M  V30 3 C 2.5681 0.0815 0.0 0
M  V30 4 C 3.8522 0.8968 0.0 0
M  V30 5 C 5.1363 0.163 0.0 0
M  V30 6 C 6.4204 0.9783 0.0 0
M  V30 7 C 7.7045 0.2445 0.0 0
M  V30 8 C 8.9886 1.0598 0.0 0
M  V30 9 C 10.2727 0.3261 0.0 0
M  V30 END ATOM
M  V30 BEGIN BOND
M  V30 1 1 1 2
M  V30 2 1 2 3
M  V30 3 1 3 4
M  V30 4 1 4 5
M  V30 5 1 5 6
M  V30 6 1 6 7
M  V30 7 1 7 8
M  V30 8 1 8 9
M  V30 END BOND
M  V30 END CTAB
M  END
>  <Molecule Name>
octanol

>  <Molecule Name 2>
octanol

>  <Database>
Essential Oil Database

>  <InChI>
InChI=1S/C8H18O/c1-2-3-4-5-6-7-8-9/h9H,2-8H2,1H3

>  <InChI-Key>
KBPLFHHGFOOTCA-UHFFFAOYSA-N

>  <Smiles>
CCCCCCCCO

>  <Molecular Formula>
C8H18O

$$$$
p-mentha-1,8-dien-4-ol
Actelion Java MolfileCreator 2.0

  0  0  0  0  0  0              0 V3000
M  V30 BEGIN CTAB
M  V30 COUNTS 11 11 0 0 0
M  V30 BEGIN ATOM
M  V30 1 O 0.0 0.0 0.0 0
M  V30 2 C -0.7793 -1.2785 0.0 0 CFG=2
M  V30 3 C -1.5586 0.0974 0.0 0
M  V30 4 C 0.4749 -1.997 0.0 0
M  V30 5 C -2.1309 -1.997 0.0 0
M  V30 6 C -3.1173 0.1948 0.0 0
M  V30 7 C -0.8158 1.4247 0.0 0
M  V30 8 C 0.4261 -3.4582 0.0 0
M  V30 9 C -2.1796 -3.4582 0.0 0
M  V30 10 C -0.9254 -4.1767 0.0 0
M  V30 11 C -0.9741 -5.6379 0.0 0
M  V30 END ATOM
M  V30 BEGIN BOND
M  V30 1 1 2 1 CFG=3
M  V30 2 1 2 3
M  V30 3 1 2 4
M  V30 4 1 2 5
M  V30 5 2 3 6
M  V30 6 1 3 7
M  V30 7 1 4 8
M  V30 8 1 5 9
M  V30 9 2 8 10
M  V30 10 1 10 11
M  V30 11 1 9 10
M  V30 END BOND
M  V30 BEGIN COLLECTION
M  V30 MDLV30/STERAC1 ATOMS=(1 2)
M  V30 END COLLECTION
M  V30 END CTAB
M  END
>  <Molecule Name>
p-mentha-1,8-dien-4-ol

>  <Molecule Name 2>
p-mentha-1,8-dien-4-ol

>  <Database>
Essential Oil Database

>  <InChI>
InChI=1S/C10H16O/c1-8(2)10(11)6-4-9(3)5-7-10/h4,11H,1,5-7H2,2-3H3/t10-/m1/s1

>  <InChI-Key>
OVKDFILSBMEKLT-SNVBAGLBSA-N

>  <Smiles>
CC(C1(CC=C(C)CC1)O)=C

>  <Molecular Formula>
C10H16O

$$$$
trans-p-menth-2-en-1,8-diol
Actelion Java MolfileCreator 2.0

  0  0  0  0  0  0              0 V3000
M  V30 BEGIN CTAB
M  V30 COUNTS 12 12 0 0 0
M  V30 BEGIN ATOM
M  V30 1 O 0.0 0.0 0.0 0
M  V30 2 C -1.0176 -1.1034 0.0 0
M  V30 3 C -2.3786 -1.8268 0.0 0
M  V30 4 C 0.2452 -1.8268 0.0 0
M  V30 5 C -2.0353 0.098 0.0 0
M  V30 6 C -2.4276 -3.2982 0.0 0
M  V30 7 C 0.1961 -3.2982 0.0 0
M  V30 8 C -1.1647 -4.0216 0.0 0
M  V30 9 C -1.2138 -5.4929 0.0 0
M  V30 10 O -2.7832 -5.4439 0.0 0
M  V30 11 C -1.2628 -6.9642 0.0 0
M  V30 12 C 0.2574 -5.4439 0.0 0
M  V30 END ATOM
M  V30 BEGIN BOND
M  V30 1 1 1 2
M  V30 2 1 2 3
M  V30 3 1 2 4
M  V30 4 1 2 5
M  V30 5 2 3 6
M  V30 6 1 4 7
M  V30 7 1 6 8
M  V30 8 1 8 9
M  V30 9 1 9 10
M  V30 10 1 9 11
M  V30 11 1 9 12
M  V30 12 1 7 8
M  V30 END BOND
M  V30 END CTAB
M  END
>  <Molecule Name>
trans-p-menth-2-en-1,8-diol

>  <Molecule Name 2>
trans-p-menth-2-en-1,8-diol

>  <Database>
Essential Oil Database

>  <InChI>
InChI=1S/C10H18O2/c1-9(2,11)8-4-6-10(3,12)7-5-8/h4,6,8,11-12H,5,7H2,1-3H3

>  <InChI-Key>
XWFVRMWMBYDDFY-UHFFFAOYSA-N

>  <Smiles>
CC(C)(C(CC1)C=CC1(C)O)O

>  <Molecular Formula>
C10H18O2

$$$$
trans-p-menth-2-en-ol
Actelion Java MolfileCreator 2.0

  0  0  0  0  0  0              0 V3000
M  V30 BEGIN CTAB
M  V30 COUNTS 11 11 0 0 0
M  V30 BEGIN ATOM
M  V30 1 O 0.0 0.0 0.0 0
M  V30 2 C -0.7793 -1.2785 0.0 0
M  V30 3 C 0.4749 -1.997 0.0 0
M  V30 4 C -1.5586 0.0974 0.0 0
M  V30 5 C -2.1309 -1.997 0.0 0
M  V30 6 C 0.4261 -3.4582 0.0 0
M  V30 7 C -3.1173 0.1948 0.0 0
M  V30 8 C -0.8158 1.4247 0.0 0
M  V30 9 C -2.1796 -3.4582 0.0 0
M  V30 10 C -0.9254 -4.1767 0.0 0
M  V30 11 C -0.9741 -5.6379 0.0 0
M  V30 END ATOM
M  V30 BEGIN BOND
M  V30 1 1 1 2
M  V30 2 1 2 3
M  V30 3 1 2 4
M  V30 4 1 2 5
M  V30 5 2 3 6
M  V30 6 1 4 7
M  V30 7 1 4 8
M  V30 8 1 5 9
M  V30 9 1 6 10
M  V30 10 1 10 11
M  V30 11 1 9 10
M  V30 END BOND
M  V30 END CTAB
M  END
>  <Molecule Name>
trans-p-menth-2-en-ol

>  <Molecule Name 2>
trans-p-menth-2-en-ol

>  <Database>
Essential Oil Database

>  <InChI>
InChI=1S/C10H18O/c1-8(2)10(11)6-4-9(3)5-7-10/h4,6,8-9,11H,5,7H2,1-3H3

>  <InChI-Key>
BJOGDSZCIIOXEK-UHFFFAOYSA-N

>  <Smiles>
CC(C)C1(C=CC(C)CC1)O

>  <Molecular Formula>
C10H18O

$$$$
2,6-dimethyl-1,3(e),s(z),7-octatetraene
Actelion Java MolfileCreator 2.0

  0  0  0  0  0  0              0 V3000
M  V30 BEGIN CTAB
M  V30 COUNTS 10 9 0 0 0
M  V30 BEGIN ATOM
M  V30 1 C 0.0 0.0 0.0 0
M  V30 2 C -0.798 -1.2645 0.0 0
M  V30 3 C 1.4732 0.0491 0.0 0
M  V30 4 C -0.798 1.3627 0.0 0
M  V30 5 C -2.3694 -1.2154 0.0 0
M  V30 6 C -3.1674 -2.4799 0.0 0
M  V30 7 C -2.4431 -3.7444 0.0 0 CFG=1
M  V30 8 C -3.2411 -5.009 0.0 0
M  V30 9 C -0.9698 -3.6953 0.0 0
M  V30 10 C -2.5167 -6.2735 0.0 0
M  V30 END ATOM
M  V30 BEGIN BOND
M  V30 1 1 1 2
M  V30 2 2 1 3
M  V30 3 1 1 4
M  V30 4 2 2 5
M  V30 5 1 5 6
M  V30 6 1 6 7
M  V30 7 1 7 8
M  V30 8 1 7 9 CFG=3
M  V30 9 2 8 10
M  V30 END BOND
M  V30 BEGIN COLLECTION
M  V30 MDLV30/STERAC1 ATOMS=(1 7)
M  V30 END COLLECTION
M  V30 END CTAB
M  END
>  <Molecule Name>
2,6-dimethyl-1,3(e),s(z),7-octatetraene

>  <Molecule Name 2>
2,6-dimethyl-1,3(e),s(z),7-octatetraene

>  <Database>
Essential Oil Database

>  <InChI>
InChI=1S/C10H16/c1-5-10(4)8-6-7-9(2)3/h5-7,10H,1-2,8H2,3-4H3/b7-6+/t10-/m1/s1

>  <InChI-Key>
JWMIAIJDECOUIA-VQCYPWCPSA-N

>  <Smiles>
CC(C/C=C/C(C)=C)C=C

>  <Molecular Formula>
C10H16

$$$$
2,6-dimethyl-3(e),5(e),7-octatrien-2-ol
Actelion Java MolfileCreator 2.0

  0  0  0  0  0  0              0 V3000
M  V30 BEGIN CTAB
M  V30 COUNTS 11 10 0 0 0
M  V30 BEGIN ATOM
M  V30 1 O 0.0 0.0 0.0 0
M  V30 2 C 1.2531 -0.7299 0.0 0
M  V30 3 C 0.4623 -1.9831 0.0 0
M  V30 4 C 1.9831 0.6204 0.0 0
M  V30 5 C 2.5063 -1.4599 0.0 0
M  V30 6 C -1.0949 -1.9344 0.0 0
M  V30 7 C -1.8736 -3.1876 0.0 0
M  V30 8 C -3.4309 -3.1389 0.0 0
M  V30 9 C -4.2217 -4.3921 0.0 0
M  V30 10 C -4.2217 -1.7884 0.0 0
M  V30 11 C -3.5039 -5.6452 0.0 0
M  V30 END ATOM
M  V30 BEGIN BOND
M  V30 1 1 1 2
M  V30 2 1 2 3
M  V30 3 1 2 4
M  V30 4 1 2 5
M  V30 5 2 3 6
M  V30 6 1 6 7
M  V30 7 2 7 8
M  V30 8 1 8 9
M  V30 9 1 8 10
M  V30 10 2 9 11
M  V30 END BOND
M  V30 END CTAB
M  END
>  <Molecule Name>
2,6-dimethyl-3(e),5(e),7-octatrien-2-ol

>  <Molecule Name 2>
2,6-dimethyl-3(e),5(e),7-octatrien-2-ol

>  <Database>
Essential Oil Database

>  <InChI>
InChI=1S/C10H16O/c1-5-9(2)7-6-8-10(3,4)11/h5-8,11H,1H2,2-4H3/b8-6+,9-7+

>  <InChI-Key>
HYBLHNGOEIJQDA-CDJQDVQCSA-N

>  <Smiles>
CC(C)(/C=C/C=C(\C)/C=C)O

>  <Molecular Formula>
C10H16O

$$$$
2-methyl-6-methylene-3,7-octadien-2-ol
Actelion Java MolfileCreator 2.0

  0  0  0  0  0  0              0 V3000
M  V30 BEGIN CTAB
M  V30 COUNTS 11 10 0 0 0
M  V30 BEGIN ATOM
M  V30 1 O 0.0 0.0 0.0 0
M  V30 2 C 1.2716 -0.7283 0.0 0
M  V30 3 C 0.4691 -2.0 0.0 0
M  V30 4 C 2.0123 0.6419 0.0 0
M  V30 5 C 2.5432 -1.4691 0.0 0
M  V30 6 C -1.1111 -1.9506 0.0 0
M  V30 7 C -1.9135 -3.2222 0.0 0
M  V30 8 C -1.1851 -4.4938 0.0 0
M  V30 9 C -1.9876 -5.7654 0.0 0
M  V30 10 C 0.2962 -4.4444 0.0 0
M  V30 11 C -1.2592 -7.037 0.0 0
M  V30 END ATOM
M  V30 BEGIN BOND
M  V30 1 1 1 2
M  V30 2 1 2 3
M  V30 3 1 2 4
M  V30 4 1 2 5
M  V30 5 2 3 6 CFG=2
M  V30 6 1 6 7
M  V30 7 1 7 8
M  V30 8 1 8 9
M  V30 9 2 8 10
M  V30 10 2 9 11
M  V30 END BOND
M  V30 END CTAB
M  END
>  <Molecule Name>
2-methyl-6-methylene-3,7-octadien-2-ol

>  <Molecule Name 2>
2-methyl-6-methylene-3,7-octadien-2-ol

>  <Database>
Essential Oil Database

>  <InChI>
InChI=1S/C10H16O/c1-5-9(2)7-6-8-10(3,4)11/h5-6,8,11H,1-2,7H2,3-4H3

>  <InChI-Key>
NOEQSPUVXRMJBW-UHFFFAOYSA-N

>  <Smiles>
CC(C)(C=CCC(C=C)=C)O

>  <Molecular Formula>
C10H16O

$$$$
cis-verbenol
Actelion Java MolfileCreator 2.0

  0  0  0  0  0  0              0 V3000
M  V30 BEGIN CTAB
M  V30 COUNTS 11 12 0 0 0
M  V30 BEGIN ATOM
M  V30 1 O 0.0 0.0 0.0 0
M  V30 2 C -0.769 1.3337 0.0 0
M  V30 3 C -0.048 2.6675 0.0 0
M  V30 4 C -2.307 1.3938 0.0 0
M  V30 5 C -0.817 4.0013 0.0 0
M  V30 6 C -3.076 2.7276 0.0 0
M  V30 7 C -2.4752 2.6675 0.0 0
M  V30 8 C -2.3551 4.0613 0.0 0
M  V30 9 C -0.0961 5.335 0.0 0
M  V30 10 C -4.4338 3.4966 0.0 0
M  V30 11 C -4.4338 2.0667 0.0 0
M  V30 END ATOM
M  V30 BEGIN BOND
M  V30 1 1 1 2
M  V30 2 1 2 3
M  V30 3 1 2 4
M  V30 4 2 3 5
M  V30 5 1 4 6
M  V30 6 1 4 7
M  V30 7 1 5 8
M  V30 8 1 5 9
M  V30 9 1 6 10
M  V30 10 1 6 11
M  V30 11 1 6 8
M  V30 12 1 7 8
M  V30 END BOND
M  V30 END CTAB
M  END
>  <Molecule Name>
cis-verbenol

>  <Molecule Name 2>
cis-verbenol

>  <Database>
Essential Oil Database

>  <InChI>
InChI=1S/C10H16O/c1-6-4-9(11)8-5-7(6)10(8,2)3/h4,7-9,11H,5H2,1-3H3

>  <InChI-Key>
WONIGEXYPVIKFS-UHFFFAOYSA-N

>  <Smiles>
CC(C)(C1C2)C2C(C)=CC1O

>  <Molecular Formula>
C10H16O

$$$$
cumin alcohol
Actelion Java MolfileCreator 2.0

  0  0  0  0  0  0              0 V3000
M  V30 BEGIN CTAB
M  V30 COUNTS 11 11 0 0 0
M  V30 BEGIN ATOM
M  V30 1 O 0.0 0.0 0.0 0
M  V30 2 C -1.318 0.7599 0.0 0
M  V30 3 C -1.3655 2.2798 0.0 0
M  V30 4 C -0.1424 3.0397 0.0 0
M  V30 5 C -2.6835 3.0397 0.0 0
M  V30 6 C -0.1899 4.5596 0.0 0
M  V30 7 C -2.731 4.5596 0.0 0
M  V30 8 C -1.5079 5.3314 0.0 0
M  V30 9 C -1.5554 6.8512 0.0 0
M  V30 10 C -2.8735 7.6112 0.0 0
M  V30 11 C -0.3324 7.6112 0.0 0
M  V30 END ATOM
M  V30 BEGIN BOND
M  V30 1 1 1 2
M  V30 2 1 2 3
M  V30 3 2 3 4
M  V30 4 1 3 5
M  V30 5 1 4 6
M  V30 6 2 5 7
M  V30 7 2 6 8
M  V30 8 1 8 9
M  V30 9 1 9 10
M  V30 10 1 9 11
M  V30 11 1 7 8
M  V30 END BOND
M  V30 END CTAB
M  END
>  <Molecule Name>
cumin alcohol

>  <Molecule Name 2>
cumin alcohol

>  <Database>
Essential Oil Database

>  <InChI>
InChI=1S/C10H14O/c1-8(2)10-5-3-9(7-11)4-6-10/h3-6,8,11H,7H2,1-2H3

>  <InChI-Key>
OIGWAXDAPKFNCQ-UHFFFAOYSA-N

>  <Smiles>
CC(C)c1ccc(CO)cc1

>  <Molecular Formula>
C10H14O

$$$$
(e)-geranyl acetone
Actelion Java MolfileCreator 2.0

  0  0  0  0  0  0              0 V3000
M  V30 BEGIN CTAB
M  V30 COUNTS 14 13 0 0 0
M  V30 BEGIN ATOM
M  V30 1 O 0.0 0.0 0.0 0
M  V30 2 C 0.712 -1.2431 0.0 0
M  V30 3 C -0.0603 -2.4862 0.0 0
M  V30 4 C 2.1603 -1.1948 0.0 0
M  V30 5 C -1.6051 -2.4379 0.0 0
M  V30 6 C -2.3896 -3.681 0.0 0
M  V30 7 C -3.9345 -3.6328 0.0 0
M  V30 8 C -4.7069 -4.8759 0.0 0
M  V30 9 C -4.7069 -2.2931 0.0 0
M  V30 10 C -6.2518 -4.8276 0.0 0
M  V30 11 C -7.0363 -6.0707 0.0 0
M  V30 12 C -8.5811 -6.0225 0.0 0
M  V30 13 C -9.3656 -7.2656 0.0 0
M  V30 14 C -9.3656 -4.6828 0.0 0
M  V30 END ATOM
M  V30 BEGIN BOND
M  V30 1 2 1 2
M  V30 2 1 2 3
M  V30 3 1 2 4
M  V30 4 1 3 5
M  V30 5 1 5 6
M  V30 6 2 6 7
M  V30 7 1 7 8
M  V30 8 1 7 9
M  V30 9 1 8 10
M  V30 10 1 10 11
M  V30 11 2 11 12
M  V30 12 1 12 13
M  V30 13 1 12 14
M  V30 END BOND
M  V30 END CTAB
M  END
>  <Molecule Name>
(e)-geranyl acetone

>  <Molecule Name 2>
(e)-geranyl acetone

>  <Database>
Essential Oil Database

>  <InChI>
InChI=1S/C13H22O/c1-11(2)7-5-8-12(3)9-6-10-13(4)14/h7,9H,5-6,8,10H2,1-4H3/b12-9+

>  <InChI-Key>
HNZUNIKWNYHEJJ-FMIVXFBMSA-N

>  <Smiles>
CC(C)=CCC/C(\C)=C/CCC(C)=O

>  <Molecular Formula>
C13H22O

$$$$
heptacosane
Actelion Java MolfileCreator 2.0

  0  0  0  0  0  0              0 V3000
M  V30 BEGIN CTAB
M  V30 COUNTS 27 26 0 0 0
M  V30 BEGIN ATOM
M  V30 1 C 0.0 0.0 0.0 0
M  V30 2 C -1.3464 0.7783 0.0 0
M  V30 3 C 1.2622 0.7783 0.0 0
M  V30 4 C -2.6928 0.0841 0.0 0
M  V30 5 C 2.5245 0.0841 0.0 0
M  V30 6 C -4.0392 0.8625 0.0 0
M  V30 7 C 3.7867 0.8625 0.0 0
M  V30 8 C -5.3856 0.1683 0.0 0
M  V30 9 C 5.049 0.1683 0.0 0
M  V30 10 C -6.732 0.9466 0.0 0
M  V30 11 C 6.3113 0.9466 0.0 0
M  V30 12 C -8.0784 0.2524 0.0 0
M  V30 13 C 7.5735 0.2524 0.0 0
M  V30 14 C -9.4248 1.0308 0.0 0
M  V30 15 C 8.8358 1.0308 0.0 0
M  V30 16 C -10.7712 0.3366 0.0 0
M  V30 17 C 10.098 0.3366 0.0 0
M  V30 18 C -12.1177 1.1149 0.0 0
M  V30 19 C 11.3603 1.1149 0.0 0
M  V30 20 C -13.4641 0.4207 0.0 0
M  V30 21 C 12.6226 0.4207 0.0 0
M  V30 22 C -14.8105 1.1991 0.0 0
M  V30 23 C 13.8848 1.1991 0.0 0
M  V30 24 C -16.1569 0.5049 0.0 0
M  V30 25 C 15.1471 0.5049 0.0 0
M  V30 26 C -17.5033 1.2832 0.0 0
M  V30 27 C 16.4093 1.2832 0.0 0
M  V30 END ATOM
M  V30 BEGIN BOND
M  V30 1 1 1 2
M  V30 2 1 1 3
M  V30 3 1 2 4
M  V30 4 1 3 5
M  V30 5 1 4 6
M  V30 6 1 5 7
M  V30 7 1 6 8
M  V30 8 1 7 9
M  V30 9 1 8 10
M  V30 10 1 9 11
M  V30 11 1 10 12
M  V30 12 1 11 13
M  V30 13 1 12 14
M  V30 14 1 13 15
M  V30 15 1 14 16
M  V30 16 1 15 17
M  V30 17 1 16 18
M  V30 18 1 17 19
M  V30 19 1 18 20
M  V30 20 1 19 21
M  V30 21 1 20 22
M  V30 22 1 21 23
M  V30 23 1 22 24
M  V30 24 1 23 25
M  V30 25 1 24 26
M  V30 26 1 25 27
M  V30 END BOND
M  V30 END CTAB
M  END
>  <Molecule Name>
heptacosane

>  <Molecule Name 2>
heptacosane

>  <Database>
Essential Oil Database

>  <InChI>
InChI=1S/C27H56/c1-3-5-7-9-11-13-15-17-19-21-23-25-27-26-24-22-20-18-16-14-12-10-8-6-4-2/h3-27H2,1-2H3

>  <InChI-Key>
BJQWYEJQWHSSCJ-UHFFFAOYSA-N

>  <Smiles>
CCCCCCCCCCCCCCCCCCCCCCCCCCC

>  <Molecular Formula>
C27H56

$$$$
hexahydrofarnesylacetone
Actelion Java MolfileCreator 2.0

  0  0  0  0  0  0              0 V3000
M  V30 BEGIN CTAB
M  V30 COUNTS 19 18 0 0 0
M  V30 BEGIN ATOM
M  V30 1 O 0.0 0.0 0.0 0
M  V30 2 C -0.0493 1.5807 0.0 0
M  V30 3 C 1.2226 2.3958 0.0 0
M  V30 4 C -1.4202 2.3958 0.0 0
M  V30 5 C 2.4946 1.6548 0.0 0
M  V30 6 C 3.7667 2.4576 0.0 0
M  V30 7 C 5.0387 1.7166 0.0 0
M  V30 8 C 6.3108 2.5317 0.0 0
M  V30 9 C 4.9893 0.2346 0.0 0
M  V30 10 C 7.5828 1.7907 0.0 0
M  V30 11 C 8.8548 2.5934 0.0 0
M  V30 12 C 10.1269 1.8524 0.0 0
M  V30 13 C 11.3989 2.6552 0.0 0
M  V30 14 C 10.0775 0.3704 0.0 0
M  V30 15 C 12.671 1.9142 0.0 0
M  V30 16 C 13.943 2.7169 0.0 0
M  V30 17 C 15.2151 1.9759 0.0 0
M  V30 18 C 16.4871 2.7787 0.0 0
M  V30 19 C 15.1657 0.4939 0.0 0
M  V30 END ATOM
M  V30 BEGIN BOND
M  V30 1 2 1 2
M  V30 2 1 2 3
M  V30 3 1 2 4
M  V30 4 1 3 5
M  V30 5 1 5 6
M  V30 6 1 6 7
M  V30 7 1 7 8
M  V30 8 1 7 9
M  V30 9 1 8 10
M  V30 10 1 10 11
M  V30 11 1 11 12
M  V30 12 1 12 13
M  V30 13 1 12 14
M  V30 14 1 13 15
M  V30 15 1 15 16
M  V30 16 1 16 17
M  V30 17 1 17 18
M  V30 18 1 17 19
M  V30 END BOND
M  V30 END CTAB
M  END
>  <Molecule Name>
hexahydrofarnesylacetone

>  <Molecule Name 2>
hexahydrofarnesylacetone

>  <Database>
Essential Oil Database

>  <InChI>
InChI=1S/C18H36O/c1-15(2)9-6-10-16(3)11-7-12-17(4)13-8-14-18(5)19/h15-17H,6-14H2,1-5H3

>  <InChI-Key>
WHWDWIHXSPCOKZ-UHFFFAOYSA-N

>  <Smiles>
CC(C)CCCC(C)CCCC(C)CCCC(C)=O

>  <Molecular Formula>
C18H36O

$$$$
methyl carvacrol
Actelion Java MolfileCreator 2.0

  0  0  0  0  0  0              0 V3000
M  V30 BEGIN CTAB
M  V30 COUNTS 12 12 0 0 0
M  V30 BEGIN ATOM
M  V30 1 O 0.0 0.0 0.0 0
M  V30 2 C 1.2537 0.779 0.0 0
M  V30 3 C 2.5075 0.0608 0.0 0
M  V30 4 C 1.205 2.3371 0.0 0
M  V30 5 C 3.7613 0.852 0.0 0
M  V30 6 C 2.4588 -1.3998 0.0 0
M  V30 7 C 2.4588 3.1283 0.0 0
M  V30 8 C 3.7126 2.4101 0.0 0
M  V30 9 C 2.4101 4.6864 0.0 0
M  V30 10 C 4.9664 3.2013 0.0 0
M  V30 11 C 1.059 5.4776 0.0 0
M  V30 12 C 3.6639 5.4776 0.0 0
M  V30 END ATOM
M  V30 BEGIN BOND
M  V30 1 1 1 2
M  V30 2 2 2 3
M  V30 3 1 2 4
M  V30 4 1 3 5
M  V30 5 1 3 6
M  V30 6 2 4 7
M  V30 7 2 5 8
M  V30 8 1 7 9
M  V30 9 1 8 10
M  V30 10 1 9 11
M  V30 11 1 9 12
M  V30 12 1 7 8
M  V30 END BOND
M  V30 END CTAB
M  END
>  <Molecule Name>
methyl carvacrol

>  <Molecule Name 2>
methyl carvacrol

>  <Database>
Essential Oil Database

>  <InChI>
InChI=1S/C11H16O/c1-7(2)10-6-11(12)9(4)5-8(10)3/h5-7,12H,1-4H3

>  <InChI-Key>
ZNPTYDKWMGSQRD-UHFFFAOYSA-N

>  <Smiles>
CC(C)c1cc(O)c(C)cc1C

>  <Molecular Formula>
C11H16O

$$$$
myrtenal
Actelion Java MolfileCreator 2.0

  0  0  0  0  0  0              0 V3000
M  V30 BEGIN CTAB
M  V30 COUNTS 11 12 0 0 0
M  V30 BEGIN ATOM
M  V30 1 O 0.0 0.0 0.0 0
M  V30 2 C -1.5338 0.0479 0.0 0
M  V30 3 C -2.3127 1.378 0.0 0
M  V30 4 C -1.5937 2.7082 0.0 0
M  V30 5 C -3.8466 1.4259 0.0 0
M  V30 6 C -2.3726 4.0383 0.0 0
M  V30 7 C -4.6255 2.7561 0.0 0
M  V30 8 C -3.5709 2.7561 0.0 0
M  V30 9 C -3.9065 4.0862 0.0 0
M  V30 10 C -5.7998 3.7507 0.0 0
M  V30 11 C -5.7998 1.8573 0.0 0
M  V30 END ATOM
M  V30 BEGIN BOND
M  V30 1 2 1 2
M  V30 2 1 2 3
M  V30 3 2 3 4
M  V30 4 1 3 5
M  V30 5 1 4 6
M  V30 6 1 5 7
M  V30 7 1 5 8
M  V30 8 1 6 9
M  V30 9 1 7 10
M  V30 10 1 7 11
M  V30 11 1 7 9
M  V30 12 1 8 9
M  V30 END BOND
M  V30 END CTAB
M  END
>  <Molecule Name>
myrtenal

>  <Molecule Name 2>
myrtenal

>  <Database>
Essential Oil Database

>  <InChI>
InChI=1S/C10H14O/c1-10(2)8-4-3-7(6-11)9(10)5-8/h3,6,8-9H,4-5H2,1-2H3

>  <InChI-Key>
KMRMUZKLFIEVAO-UHFFFAOYSA-N

>  <Smiles>
CC1(C)C2C(C=O)=CCC1C2

>  <Molecular Formula>
C10H14O

$$$$
nonacosane
Actelion Java MolfileCreator 2.0

  0  0  0  0  0  0              0 V3000
M  V30 BEGIN CTAB
M  V30 COUNTS 29 28 0 0 0
M  V30 BEGIN ATOM
M  V30 1 C 0.0 0.0 0.0 0
M  V30 2 C -1.3478 -0.6949 0.0 0
M  V30 3 C 1.2636 -0.6949 0.0 0
M  V30 4 C -2.6956 0.0842 0.0 0
M  V30 5 C 2.5272 0.0842 0.0 0
M  V30 6 C -4.0435 -0.6107 0.0 0
M  V30 7 C 3.7908 -0.6107 0.0 0
M  V30 8 C -5.3913 0.1684 0.0 0
M  V30 9 C 5.0544 0.1684 0.0 0
M  V30 10 C -6.7392 -0.5265 0.0 0
M  V30 11 C 6.318 -0.5265 0.0 0
M  V30 12 C -8.087 0.2527 0.0 0
M  V30 13 C 7.5816 0.2527 0.0 0
M  V30 14 C -9.4348 -0.4422 0.0 0
M  V30 15 C 8.8452 -0.4422 0.0 0
M  V30 16 C -10.7827 0.3369 0.0 0
M  V30 17 C 10.1088 0.3369 0.0 0
M  V30 18 C -12.1305 -0.358 0.0 0
M  V30 19 C 11.3724 -0.358 0.0 0
M  V30 20 C -13.4784 0.4212 0.0 0
M  V30 21 C 12.636 0.4212 0.0 0
M  V30 22 C -14.8262 -0.2737 0.0 0
M  V30 23 C 13.8996 -0.2737 0.0 0
M  V30 24 C -16.174 0.5054 0.0 0
M  V30 25 C 15.1632 0.5054 0.0 0
M  V30 26 C -17.5219 -0.1895 0.0 0
M  V30 27 C 16.4268 -0.1895 0.0 0
M  V30 28 C -18.8697 0.5896 0.0 0
M  V30 29 C 17.6904 0.5896 0.0 0
M  V30 END ATOM
M  V30 BEGIN BOND
M  V30 1 1 1 2
M  V30 2 1 1 3
M  V30 3 1 2 4
M  V30 4 1 3 5
M  V30 5 1 4 6
M  V30 6 1 5 7
M  V30 7 1 6 8
M  V30 8 1 7 9
M  V30 9 1 8 10
M  V30 10 1 9 11
M  V30 11 1 10 12
M  V30 12 1 11 13
M  V30 13 1 12 14
M  V30 14 1 13 15
M  V30 15 1 14 16
M  V30 16 1 15 17
M  V30 17 1 16 18
M  V30 18 1 17 19
M  V30 19 1 18 20
M  V30 20 1 19 21
M  V30 21 1 20 22
M  V30 22 1 21 23
M  V30 23 1 22 24
M  V30 24 1 23 25
M  V30 25 1 24 26
M  V30 26 1 25 27
M  V30 27 1 26 28
M  V30 28 1 27 29
M  V30 END BOND
M  V30 END CTAB
M  END
>  <Molecule Name>
nonacosane

>  <Molecule Name 2>
nonacosane

>  <Database>
Essential Oil Database

>  <InChI>
InChI=1S/C29H60/c1-3-5-7-9-11-13-15-17-19-21-23-25-27-29-28-26-24-22-20-18-16-14-12-10-8-6-4-2/h3-29H2,1-2H3

>  <InChI-Key>
IGGUPRCHHJZPBS-UHFFFAOYSA-N

>  <Smiles>
CCCCCCCCCCCCCCCCCCCCCCCCCCCCC

>  <Molecular Formula>
C29H60

$$$$
perillene
Actelion Java MolfileCreator 2.0

  0  0  0  0  0  0              0 V3000
M  V30 BEGIN CTAB
M  V30 COUNTS 11 11 0 0 0
M  V30 BEGIN ATOM
M  V30 1 O 0.0 0.0 0.0 0
M  V30 2 C 0.4152 1.4473 0.0 0
M  V30 3 C -1.5185 0.0474 0.0 0
M  V30 4 C -0.8185 2.3489 0.0 0
M  V30 5 C -2.0286 1.4948 0.0 0
M  V30 6 C -0.866 3.8675 0.0 0
M  V30 7 C -2.1828 4.6267 0.0 0
M  V30 8 C -2.2303 6.1453 0.0 0
M  V30 9 C -1.0084 6.9164 0.0 0
M  V30 10 C -1.0558 8.4349 0.0 0
M  V30 11 C 0.2135 6.2165 0.0 0
M  V30 END ATOM
M  V30 BEGIN BOND
M  V30 1 1 1 2
M  V30 2 1 1 3
M  V30 3 2 2 4
M  V30 4 2 3 5
M  V30 5 1 4 6
M  V30 6 1 6 7
M  V30 7 1 7 8
M  V30 8 2 8 9
M  V30 9 1 9 10
M  V30 10 1 9 11
M  V30 11 1 4 5
M  V30 END BOND
M  V30 END CTAB
M  END
>  <Molecule Name>
perillene

>  <Molecule Name 2>
perillene

>  <Database>
Essential Oil Database

>  <InChI>
InChI=1S/C10H14O/c1-9(2)4-3-5-10-6-7-11-8-10/h4,6-8H,3,5H2,1-2H3

>  <InChI-Key>
XNGKCOFXDHYSGR-UHFFFAOYSA-N

>  <Smiles>
CC(C)=CCCc1c[o]cc1

>  <Molecular Formula>
C10H14O

$$$$
perillyl alcohol
Actelion Java MolfileCreator 2.0

  0  0  0  0  0  0              0 V3000
M  V30 BEGIN CTAB
M  V30 COUNTS 11 11 0 0 0
M  V30 BEGIN ATOM
M  V30 1 O 0.0 0.0 0.0 0
M  V30 2 C -1.318 0.7599 0.0 0
M  V30 3 C -1.3655 2.2798 0.0 0
M  V30 4 C -2.6835 3.0397 0.0 0
M  V30 5 C -0.1424 3.0397 0.0 0
M  V30 6 C -2.731 4.5596 0.0 0
M  V30 7 C -0.1899 4.5596 0.0 0
M  V30 8 C -1.5079 5.3314 0.0 0 CFG=2
M  V30 9 C -1.5554 6.8512 0.0 0
M  V30 10 C -0.3324 7.6112 0.0 0
M  V30 11 C -2.8735 7.6112 0.0 0
M  V30 END ATOM
M  V30 BEGIN BOND
M  V30 1 1 1 2
M  V30 2 1 2 3
M  V30 3 2 3 4
M  V30 4 1 3 5
M  V30 5 1 4 6
M  V30 6 1 5 7
M  V30 7 1 6 8
M  V30 8 1 8 9 CFG=1
M  V30 9 2 9 10
M  V30 10 1 9 11
M  V30 11 1 7 8
M  V30 END BOND
M  V30 BEGIN COLLECTION
M  V30 MDLV30/STERAC1 ATOMS=(1 8)
M  V30 END COLLECTION
M  V30 END CTAB
M  END
>  <Molecule Name>
perillyl alcohol

>  <Molecule Name 2>
perillyl alcohol

>  <Database>
Essential Oil Database

>  <InChI>
InChI=1S/C10H16O/c1-8(2)10-5-3-9(7-11)4-6-10/h3,10-11H,1,4-7H2,2H3/t10-/m1/s1

>  <InChI-Key>
NDTYTMIUWGWIMO-SNVBAGLBSA-N

>  <Smiles>
CC(C1CC=C(CO)CC1)=C

>  <Molecular Formula>
C10H16O

$$$$
phellandral
Actelion Java MolfileCreator 2.0

  0  0  0  0  0  0              0 V3000
M  V30 BEGIN CTAB
M  V30 COUNTS 11 11 0 0 0
M  V30 BEGIN ATOM
M  V30 1 O 0.0 0.0 0.0 0
M  V30 2 C -1.318 0.7599 0.0 0
M  V30 3 C -1.3655 2.2798 0.0 0
M  V30 4 C -2.6835 3.0397 0.0 0
M  V30 5 C -0.1424 3.0397 0.0 0
M  V30 6 C -2.731 4.5596 0.0 0
M  V30 7 C -0.1899 4.5596 0.0 0
M  V30 8 C -1.5079 5.3314 0.0 0 CFG=2
M  V30 9 C -1.5554 6.8512 0.0 0
M  V30 10 C -2.8735 7.6112 0.0 0
M  V30 11 C -0.3324 7.6112 0.0 0
M  V30 END ATOM
M  V30 BEGIN BOND
M  V30 1 2 1 2
M  V30 2 1 2 3
M  V30 3 2 3 4
M  V30 4 1 3 5
M  V30 5 1 4 6
M  V30 6 1 5 7
M  V30 7 1 6 8
M  V30 8 1 8 9 CFG=1
M  V30 9 1 9 10
M  V30 10 1 9 11
M  V30 11 1 7 8
M  V30 END BOND
M  V30 BEGIN COLLECTION
M  V30 MDLV30/STERAC1 ATOMS=(1 8)
M  V30 END COLLECTION
M  V30 END CTAB
M  END
>  <Molecule Name>
phellandral

>  <Molecule Name 2>
phellandral

>  <Database>
Essential Oil Database

>  <InChI>
InChI=1S/C10H16O/c1-8(2)10-5-3-9(7-11)4-6-10/h3,7-8,10H,4-6H2,1-2H3/t10-/m1/s1

>  <InChI-Key>
AEVLWICMAHGAMS-SNVBAGLBSA-N

>  <Smiles>
CC(C)C(CC1)CC=C1C=O

>  <Molecular Formula>
C10H16O

$$$$
p-methyl acetophenone
Actelion Java MolfileCreator 2.0

  0  0  0  0  0  0              0 V3000
M  V30 BEGIN CTAB
M  V30 COUNTS 10 10 0 0 0
M  V30 BEGIN ATOM
M  V30 1 O 0.0 0.0 0.0 0
M  V30 2 C -1.3693 -0.6905 0.0 0
M  V30 3 C -1.4162 -2.1652 0.0 0
M  V30 4 C -2.7387 0.1287 0.0 0
M  V30 5 C -0.1404 -2.8558 0.0 0
M  V30 6 C -2.7856 -2.8558 0.0 0
M  V30 7 C -0.1872 -4.3305 0.0 0
M  V30 8 C -2.8324 -4.3305 0.0 0
M  V30 9 C -1.5566 -5.0211 0.0 0
M  V30 10 C -1.6034 -6.4958 0.0 0
M  V30 END ATOM
M  V30 BEGIN BOND
M  V30 1 2 1 2
M  V30 2 1 2 3
M  V30 3 1 2 4
M  V30 4 2 3 5
M  V30 5 1 3 6
M  V30 6 1 5 7
M  V30 7 2 6 8
M  V30 8 2 7 9
M  V30 9 1 9 10
M  V30 10 1 8 9
M  V30 END BOND
M  V30 END CTAB
M  END
>  <Molecule Name>
p-methyl acetophenone

>  <Molecule Name 2>
p-methyl acetophenone

>  <Database>
Essential Oil Database

>  <InChI>
InChI=1S/C9H10O/c1-7-3-5-9(6-4-7)8(2)10/h3-6H,1-2H3

>  <InChI-Key>
GNKZMNRKLCTJAY-UHFFFAOYSA-N

>  <Smiles>
CC(c1ccc(C)cc1)=O

>  <Molecular Formula>
C9H10O

$$$$
verbenone
Actelion Java MolfileCreator 2.0

  0  0  0  0  0  0              0 V3000
M  V30 BEGIN CTAB
M  V30 COUNTS 11 12 0 0 0
M  V30 BEGIN ATOM
M  V30 1 O 0.0 0.0 0.0 0
M  V30 2 C -0.769 1.3337 0.0 0
M  V30 3 C -0.048 2.6675 0.0 0
M  V30 4 C -2.307 1.3938 0.0 0 CFG=1
M  V30 5 C -0.817 4.0013 0.0 0
M  V30 6 C -3.076 2.7276 0.0 0
M  V30 7 C -2.4752 2.6675 0.0 0
M  V30 8 C -2.3551 4.0613 0.0 0 CFG=2
M  V30 9 C -0.0961 5.335 0.0 0
M  V30 10 C -4.4338 3.4966 0.0 0
M  V30 11 C -4.4338 2.0667 0.0 0
M  V30 END ATOM
M  V30 BEGIN BOND
M  V30 1 2 1 2
M  V30 2 1 2 3
M  V30 3 1 4 2 CFG=1
M  V30 4 2 3 5
M  V30 5 1 4 6
M  V30 6 1 4 7
M  V30 7 1 8 5 CFG=1
M  V30 8 1 5 9
M  V30 9 1 6 10
M  V30 10 1 6 11
M  V30 11 1 6 8
M  V30 12 1 7 8
M  V30 END BOND
M  V30 BEGIN COLLECTION
M  V30 MDLV30/STEABS ATOMS=(2 4 8)
M  V30 END COLLECTION
M  V30 END CTAB
M  END
>  <Molecule Name>
verbenone

>  <Molecule Name 2>
verbenone

>  <Database>
Essential Oil Database

>  <InChI>
InChI=1S/C10H14O/c1-6-4-9(11)8-5-7(6)10(8,2)3/h4,7-8H,5H2,1-3H3/t7-,8+/m1/s1

>  <InChI-Key>
DCSCXTJOXBUFGB-SFYZADRCSA-N

>  <Smiles>
CC(C)([C@H](C1)C(C)=C2)[C@@H]1C2=O

>  <Molecular Formula>
C10H14O

$$$$
10-epi-gamma-eudesmol
Actelion Java MolfileCreator 2.0

  0  0  0  0  0  0              0 V3000
M  V30 BEGIN CTAB
M  V30 COUNTS 16 17 0 0 0
M  V30 BEGIN ATOM
M  V30 1 O 0.0 0.0 0.0 0
M  V30 2 C 0.7114 -1.242 0.0 0
M  V30 3 C -0.627 -1.9535 0.0 0 CFG=1
M  V30 4 C 1.9535 -0.4582 0.0 0
M  V30 5 C 1.4229 -2.4841 0.0 0
M  V30 6 C -1.9656 -1.1576 0.0 0
M  V30 7 C -0.6753 -3.4006 0.0 0
M  V30 8 C -3.3041 -1.8691 0.0 0
M  V30 9 C -2.0138 -4.1242 0.0 0
M  V30 10 C -4.6427 -1.0732 0.0 0
M  V30 11 C -3.3524 -3.3162 0.0 0 CFG=2
M  V30 12 C -5.9813 -1.7847 0.0 0
M  V30 13 C -4.6909 0.4703 0.0 0
M  V30 14 C -4.6909 -4.0397 0.0 0
M  V30 15 C -3.4006 -4.7633 0.0 0
M  V30 16 C -6.0295 -3.2318 0.0 0
M  V30 END ATOM
M  V30 BEGIN BOND
M  V30 1 1 1 2
M  V30 2 1 3 2 CFG=3
M  V30 3 1 2 4
M  V30 4 1 2 5
M  V30 5 1 3 6
M  V30 6 1 3 7
M  V30 7 1 6 8
M  V30 8 1 7 9
M  V30 9 2 8 10
M  V30 10 1 8 11
M  V30 11 1 10 12
M  V30 12 1 10 13
M  V30 13 1 11 14
M  V30 14 1 11 15 CFG=1
M  V30 15 1 12 16
M  V30 16 1 9 11
M  V30 17 1 14 16
M  V30 END BOND
M  V30 BEGIN COLLECTION
M  V30 MDLV30/STEABS ATOMS=(2 3 11)
M  V30 END COLLECTION
M  V30 END CTAB
M  END
>  <Molecule Name>
10-epi-gamma-eudesmol

>  <Molecule Name 2>
10-epi-gamma-eudesmol

>  <Database>
Essential Oil Database

>  <InChI>
InChI=1S/C15H26O/c1-11-6-5-8-15(4)9-7-12(10-13(11)15)14(2,3)16/h12,16H,5-10H2,1-4H3/t12-,15+/m1/s1

>  <InChI-Key>
WMOPMQRJLLIEJV-DOMZBBRYSA-N

>  <Smiles>
CC(C)([C@H]1CC2=C(C)CCC[C@@]2(C)CC1)O

>  <Molecular Formula>
C15H26O

$$$$
pentacosane
Actelion Java MolfileCreator 2.0

  0  0  0  0  0  0              0 V3000
M  V30 BEGIN CTAB
M  V30 COUNTS 25 24 0 0 0
M  V30 BEGIN ATOM
M  V30 1 C 0.0 0.0 0.0 0
M  V30 2 C -1.3478 -0.6949 0.0 0
M  V30 3 C 1.2636 -0.6949 0.0 0
M  V30 4 C -2.6956 0.0842 0.0 0
M  V30 5 C 2.5272 0.0842 0.0 0
M  V30 6 C -4.0435 -0.6107 0.0 0
M  V30 7 C 3.7908 -0.6107 0.0 0
M  V30 8 C -5.3913 0.1684 0.0 0
M  V30 9 C 5.0544 0.1684 0.0 0
M  V30 10 C -6.7392 -0.5265 0.0 0
M  V30 11 C 6.318 -0.5265 0.0 0
M  V30 12 C -8.087 0.2527 0.0 0
M  V30 13 C 7.5816 0.2527 0.0 0
M  V30 14 C -9.4348 -0.4422 0.0 0
M  V30 15 C 8.8452 -0.4422 0.0 0
M  V30 16 C -10.7827 0.3369 0.0 0
M  V30 17 C 10.1088 0.3369 0.0 0
M  V30 18 C -12.1305 -0.358 0.0 0
M  V30 19 C 11.3724 -0.358 0.0 0
M  V30 20 C -13.4784 0.4212 0.0 0
M  V30 21 C 12.636 0.4212 0.0 0
M  V30 22 C -14.8262 -0.2737 0.0 0
M  V30 23 C 13.8996 -0.2737 0.0 0
M  V30 24 C -16.174 0.5054 0.0 0
M  V30 25 C 15.1632 0.5054 0.0 0
M  V30 END ATOM
M  V30 BEGIN BOND
M  V30 1 1 1 2
M  V30 2 1 1 3
M  V30 3 1 2 4
M  V30 4 1 3 5
M  V30 5 1 4 6
M  V30 6 1 5 7
M  V30 7 1 6 8
M  V30 8 1 7 9
M  V30 9 1 8 10
M  V30 10 1 9 11
M  V30 11 1 10 12
M  V30 12 1 11 13
M  V30 13 1 12 14
M  V30 14 1 13 15
M  V30 15 1 14 16
M  V30 16 1 15 17
M  V30 17 1 16 18
M  V30 18 1 17 19
M  V30 19 1 18 20
M  V30 20 1 19 21
M  V30 21 1 20 22
M  V30 22 1 21 23
M  V30 23 1 22 24
M  V30 24 1 23 25
M  V30 END BOND
M  V30 END CTAB
M  END
>  <Molecule Name>
pentacosane

>  <Molecule Name 2>
pentacosane

>  <Database>
Essential Oil Database

>  <InChI>
InChI=1S/C25H52/c1-3-5-7-9-11-13-15-17-19-21-23-25-24-22-20-18-16-14-12-10-8-6-4-2/h3-25H2,1-2H3

>  <InChI-Key>
YKNWIILGEFFOPE-UHFFFAOYSA-N

>  <Smiles>
CCCCCCCCCCCCCCCCCCCCCCCCC

>  <Molecular Formula>
C25H52

$$$$
p-isopropyl phenol
Actelion Java MolfileCreator 2.0

  0  0  0  0  0  0              0 V3000
M  V30 BEGIN CTAB
M  V30 COUNTS 10 10 0 0 0
M  V30 BEGIN ATOM
M  V30 1 O 0.0 0.0 0.0 0
M  V30 2 C -0.0472 -1.488 0.0 0
M  V30 3 C 1.24 -2.1848 0.0 0
M  V30 4 C -1.4289 -2.1848 0.0 0
M  V30 5 C 1.1928 -3.6728 0.0 0
M  V30 6 C -1.4762 -3.6728 0.0 0
M  V30 7 C -0.1889 -4.3696 0.0 0
M  V30 8 C -0.2361 -5.8577 0.0 0
M  V30 9 C 1.051 -6.5663 0.0 0
M  V30 10 C -1.6179 -6.5663 0.0 0
M  V30 END ATOM
M  V30 BEGIN BOND
M  V30 1 1 1 2
M  V30 2 2 2 3
M  V30 3 1 2 4
M  V30 4 1 3 5
M  V30 5 2 4 6
M  V30 6 2 5 7
M  V30 7 1 7 8
M  V30 8 1 8 9
M  V30 9 1 8 10
M  V30 10 1 6 7
M  V30 END BOND
M  V30 END CTAB
M  END
>  <Molecule Name>
p-isopropyl phenol

>  <Molecule Name 2>
p-isopropyl phenol

>  <Database>
Essential Oil Database

>  <InChI>
InChI=1S/C9H12O/c1-7(2)8-3-5-9(10)6-4-8/h3-7,10H,1-2H3

>  <InChI-Key>
YQUQWHNMBPIWGK-UHFFFAOYSA-N

>  <Smiles>
CC(C)c(cc1)ccc1O

>  <Molecular Formula>
C9H12O

$$$$
1-octen-3-ol
Actelion Java MolfileCreator 2.0

  0  0  0  0  0  0              0 V3000
M  V30 BEGIN CTAB
M  V30 COUNTS 9 8 0 0 0
M  V30 BEGIN ATOM
M  V30 1 O 0.0 0.0 0.0 0
M  V30 2 C -0.0486 1.5567 0.0 0 CFG=2
M  V30 3 C -1.3986 2.3473 0.0 0
M  V30 4 C 1.204 2.3473 0.0 0
M  V30 5 C -2.7486 1.6175 0.0 0
M  V30 6 C 2.4567 1.6175 0.0 0
M  V30 7 C 3.7094 2.4081 0.0 0
M  V30 8 C 4.9621 1.6783 0.0 0
M  V30 9 C 6.2149 2.4689 0.0 0
M  V30 END ATOM
M  V30 BEGIN BOND
M  V30 1 1 2 1 CFG=3
M  V30 2 1 2 3
M  V30 3 1 2 4
M  V30 4 2 3 5
M  V30 5 1 4 6
M  V30 6 1 6 7
M  V30 7 1 7 8
M  V30 8 1 8 9
M  V30 END BOND
M  V30 BEGIN COLLECTION
M  V30 MDLV30/STERAC1 ATOMS=(1 2)
M  V30 END COLLECTION
M  V30 END CTAB
M  END
>  <Molecule Name>
1-octen-3-ol

>  <Molecule Name 2>
1-octen-3-ol

>  <Database>
Essential Oil Database

>  <InChI>
InChI=1S/C8H16O/c1-3-5-6-7-8(9)4-2/h4,8-9H,2-3,5-7H2,1H3/t8-/m1/s1

>  <InChI-Key>
VSMOENVRRABVKN-MRVPVSSYSA-N

>  <Smiles>
CCCCCC(C=C)O

>  <Molecular Formula>
C8H16O

$$$$
6-methyl-3,5-heptadien-2-one
Actelion Java MolfileCreator 2.0

  0  0  0  0  0  0              0 V3000
M  V30 BEGIN CTAB
M  V30 COUNTS 9 8 0 0 0
M  V30 BEGIN ATOM
M  V30 1 O 0.0 0.0 0.0 0
M  V30 2 C 0.7167 -1.2512 0.0 0
M  V30 3 C -0.0607 -2.5024 0.0 0
M  V30 4 C 2.1744 -1.2026 0.0 0
M  V30 5 C -1.6156 -2.4538 0.0 0
M  V30 6 C -2.393 -3.705 0.0 0
M  V30 7 C -3.9479 -3.6564 0.0 0
M  V30 8 C -4.7375 -4.9076 0.0 0
M  V30 9 C -4.7375 -2.308 0.0 0
M  V30 END ATOM
M  V30 BEGIN BOND
M  V30 1 2 1 2
M  V30 2 1 2 3
M  V30 3 1 2 4
M  V30 4 2 3 5 CFG=2
M  V30 5 1 5 6
M  V30 6 2 6 7
M  V30 7 1 7 8
M  V30 8 1 7 9
M  V30 END BOND
M  V30 END CTAB
M  END
>  <Molecule Name>
6-methyl-3,5-heptadien-2-one

>  <Molecule Name 2>
6-methyl-3,5-heptadien-2-one

>  <Database>
Essential Oil Database

>  <InChI>
InChI=1S/C8H12O/c1-7(2)5-4-6-8(3)9/h4-6H,1-3H3

>  <InChI-Key>
KSKXSFZGARKWOW-UHFFFAOYSA-N

>  <Smiles>
CC(C)=CC=CC(C)=O

>  <Molecular Formula>
C8H12O

$$$$
benzyl benzoate
Actelion Java MolfileCreator 2.0

  0  0  0  0  0  0              0 V3000
M  V30 BEGIN CTAB
M  V30 COUNTS 16 17 0 0 0
M  V30 BEGIN ATOM
M  V30 1 O 0.0 0.0 0.0 0
M  V30 2 C 1.2643 -0.7364 0.0 0
M  V30 3 O 2.5286 0.049 0.0 0
M  V30 4 C 1.2152 -2.2094 0.0 0
M  V30 5 C 2.4795 1.6202 0.0 0
M  V30 6 C 2.4795 -2.9459 0.0 0
M  V30 7 C -0.1472 -2.9459 0.0 0
M  V30 8 C 3.7438 2.4181 0.0 0
M  V30 9 C 2.4304 -4.4189 0.0 0
M  V30 10 C -0.1963 -4.4189 0.0 0
M  V30 11 C 3.6947 3.9893 0.0 0
M  V30 12 C 5.0081 1.6939 0.0 0
M  V30 13 C 1.0679 -5.1431 0.0 0
M  V30 14 C 4.959 4.7871 0.0 0
M  V30 15 C 6.2724 2.4917 0.0 0
M  V30 16 C 6.2233 4.0629 0.0 0
M  V30 END ATOM
M  V30 BEGIN BOND
M  V30 1 2 1 2
M  V30 2 1 2 3
M  V30 3 1 2 4
M  V30 4 1 3 5
M  V30 5 2 4 6
M  V30 6 1 4 7
M  V30 7 1 5 8
M  V30 8 1 6 9
M  V30 9 2 7 10
M  V30 10 2 8 11
M  V30 11 1 8 12
M  V30 12 2 9 13
M  V30 13 1 11 14
M  V30 14 2 12 15
M  V30 15 2 14 16
M  V30 16 1 10 13
M  V30 17 1 15 16
M  V30 END BOND
M  V30 END CTAB
M  END
>  <Molecule Name>
benzyl benzoate

>  <Molecule Name 2>
benzyl benzoate

>  <Database>
Essential Oil Database

>  <InChI>
InChI=1S/C14H12O2/c15-14(13-9-5-2-6-10-13)16-11-12-7-3-1-4-8-12/h1-10H,11H2

>  <InChI-Key>
SESFRYSPDFLNCH-UHFFFAOYSA-N

>  <Smiles>
O=C(c1ccccc1)OCc1ccccc1

>  <Molecular Formula>
C14H12O2

$$$$
beta-ionone
Actelion Java MolfileCreator 2.0

  0  0  0  0  0  0              0 V3000
M  V30 BEGIN CTAB
M  V30 COUNTS 14 14 0 0 0
M  V30 BEGIN ATOM
M  V30 1 O 0.0 0.0 0.0 0
M  V30 2 C -1.3307 0.7792 0.0 0
M  V30 3 C -2.6614 0.0719 0.0 0
M  V30 4 C -1.3786 2.3138 0.0 0
M  V30 5 C -2.7094 -1.3667 0.0 0
M  V30 6 C -4.0401 -2.074 0.0 0
M  V30 7 C -4.0881 -3.5126 0.0 0
M  V30 8 C -5.3708 -1.2947 0.0 0
M  V30 9 C -5.4188 -4.2199 0.0 0
M  V30 10 C -2.8532 -4.2199 0.0 0
M  V30 11 C -6.7016 -2.002 0.0 0
M  V30 12 C -6.1381 0.0599 0.0 0
M  V30 13 C -4.6995 0.0599 0.0 0
M  V30 14 C -6.7495 -3.4407 0.0 0
M  V30 END ATOM
M  V30 BEGIN BOND
M  V30 1 2 1 2
M  V30 2 1 2 3
M  V30 3 1 2 4
M  V30 4 2 3 5
M  V30 5 1 5 6
M  V30 6 2 6 7
M  V30 7 1 6 8
M  V30 8 1 7 9
M  V30 9 1 7 10
M  V30 10 1 8 11
M  V30 11 1 8 12
M  V30 12 1 8 13
M  V30 13 1 9 14
M  V30 14 1 11 14
M  V30 END BOND
M  V30 END CTAB
M  END
>  <Molecule Name>
beta-ionone

>  <Molecule Name 2>
beta-ionone

>  <Database>
Essential Oil Database

>  <InChI>
InChI=1S/C13H20O/c1-10-6-5-9-13(3,4)12(10)8-7-11(2)14/h7-8H,5-6,9H2,1-4H3/b8-7+

>  <InChI-Key>
PSQYTAPXSHCGMF-BQYQJAHWSA-N

>  <Smiles>
CC1(C)C(/C=C/C(C)=O)=C(C)CCC1

>  <Molecular Formula>
C13H20O

$$$$
decanoic acid
Actelion Java MolfileCreator 2.0

  0  0  0  0  0  0              0 V3000
M  V30 BEGIN CTAB
M  V30 COUNTS 12 11 0 0 0
M  V30 BEGIN ATOM
M  V30 1 O 0.0 0.0 0.0 0
M  V30 2 C -0.0469 -1.4798 0.0 0
M  V30 3 O -1.4211 -2.2198 0.0 0
M  V30 4 C 1.2332 -2.2198 0.0 0
M  V30 5 C 2.5134 -1.3859 0.0 0
M  V30 6 C 3.7936 -2.0906 0.0 0
M  V30 7 C 5.0739 -1.2567 0.0 0
M  V30 8 C 6.3541 -1.9614 0.0 0
M  V30 9 C 7.6343 -1.1275 0.0 0
M  V30 10 C 8.9145 -1.8674 0.0 0
M  V30 11 C 10.1948 -1.0335 0.0 0
M  V30 12 C 11.475 -1.75 0.0 0
M  V30 END ATOM
M  V30 BEGIN BOND
M  V30 1 2 1 2
M  V30 2 1 2 3
M  V30 3 1 2 4
M  V30 4 1 4 5
M  V30 5 1 5 6
M  V30 6 1 6 7
M  V30 7 1 7 8
M  V30 8 1 8 9
M  V30 9 1 9 10
M  V30 10 1 10 11
M  V30 11 1 11 12
M  V30 END BOND
M  V30 END CTAB
M  END
>  <Molecule Name>
decanoic acid

>  <Molecule Name 2>
decanoic acid

>  <Database>
Essential Oil Database

>  <InChI>
InChI=1S/C10H20O2/c1-2-3-4-5-6-7-8-9-10(11)12/h2-9H2,1H3,(H,11,12)

>  <InChI-Key>
GHVNFZFCNZKVNT-UHFFFAOYSA-N

>  <Smiles>
CCCCCCCCCC(O)=O

>  <Molecular Formula>
C10H20O2

$$$$
delta-cadinol
Actelion Java MolfileCreator 2.0

  0  0  0  0  0  0              0 V3000
M  V30 BEGIN CTAB
M  V30 COUNTS 16 17 0 0 0
M  V30 BEGIN ATOM
M  V30 1 O 0.0 0.0 0.0 0
M  V30 2 C -1.0422 -1.1242 0.0 0 CFG=1
M  V30 3 C 0.2342 -1.8385 0.0 0 CFG=2
M  V30 4 C -2.4123 -1.8385 0.0 0
M  V30 5 C -2.0844 0.0936 0.0 0
M  V30 6 C 0.1873 -3.314 0.0 0 CFG=1
M  V30 7 C 1.5106 -1.007 0.0 0
M  V30 8 C -2.4591 -3.314 0.0 0
M  V30 9 C 1.4638 -4.0283 0.0 0
M  V30 10 C -1.1827 -4.0283 0.0 0 CFG=1
M  V30 11 C 2.787 -1.7214 0.0 0
M  V30 12 C 2.7402 -3.1969 0.0 0
M  V30 13 C -1.2295 -5.5038 0.0 0
M  V30 14 C 4.0166 -3.9347 0.0 0
M  V30 15 C 0.0468 -6.2065 0.0 0
M  V30 16 C -2.5997 -6.2065 0.0 0
M  V30 END ATOM
M  V30 BEGIN BOND
M  V30 1 1 2 1 CFG=1
M  V30 2 1 2 3
M  V30 3 1 2 4
M  V30 4 1 2 5
M  V30 5 1 3 6
M  V30 6 1 3 7 CFG=1
M  V30 7 1 4 8
M  V30 8 1 6 9 CFG=1
M  V30 9 1 6 10
M  V30 10 1 7 11
M  V30 11 2 9 12
M  V30 12 1 10 13 CFG=3
M  V30 13 1 12 14
M  V30 14 1 13 15
M  V30 15 1 13 16
M  V30 16 1 8 10
M  V30 17 1 11 12
M  V30 END BOND
M  V30 BEGIN COLLECTION
M  V30 MDLV30/STEABS ATOMS=(4 2 3 6 10)
M  V30 END COLLECTION
M  V30 END CTAB
M  END
>  <Molecule Name>
delta-cadinol

>  <Molecule Name 2>
delta-cadinol

>  <Database>
Essential Oil Database

>  <InChI>
InChI=1S/C15H26O/c1-10(2)12-7-8-15(4,16)14-6-5-11(3)9-13(12)14/h9-10,12-14,16H,5-8H2,1-4H3/t12-,13-,14-,15+/m0/s1

>  <InChI-Key>
LHYHMMRYTDARSZ-ZQDZILKHSA-N

>  <Smiles>
CC(C)[C@H](CC1)[C@@H]2C=C(C)CC[C@@H]2[C@]1(C)O

>  <Molecular Formula>
C15H26O

$$$$
(e)-alpha-decenal
Actelion Java MolfileCreator 2.0

  0  0  0  0  0  0              0 V3000
M  V30 BEGIN CTAB
M  V30 COUNTS 11 10 0 0 0
M  V30 BEGIN ATOM
M  V30 1 O 0.0 0.0 0.0 0
M  V30 2 C -0.0494 1.5817 0.0 0
M  V30 3 C 1.2233 2.3849 0.0 0
M  V30 4 C 2.4962 1.6435 0.0 0
M  V30 5 C 3.769 2.4467 0.0 0
M  V30 6 C 5.0418 1.7053 0.0 0
M  V30 7 C 6.3146 2.5085 0.0 0
M  V30 8 C 7.5874 1.7671 0.0 0
M  V30 9 C 8.8602 2.5703 0.0 0
M  V30 10 C 10.1331 1.8289 0.0 0
M  V30 11 C 11.4059 2.6321 0.0 0
M  V30 END ATOM
M  V30 BEGIN BOND
M  V30 1 2 1 2
M  V30 2 1 2 3
M  V30 3 2 3 4
M  V30 4 1 4 5
M  V30 5 1 5 6
M  V30 6 1 6 7
M  V30 7 1 7 8
M  V30 8 1 8 9
M  V30 9 1 9 10
M  V30 10 1 10 11
M  V30 END BOND
M  V30 END CTAB
M  END
>  <Molecule Name>
(e)-alpha-decenal

>  <Molecule Name 2>
(e)-alpha-decenal

>  <Database>
Essential Oil Database

>  <InChI>
InChI=1S/C10H18O/c1-2-3-4-5-6-7-8-9-10-11/h8-10H,2-7H2,1H3/b9-8+

>  <InChI-Key>
MMFCJPPRCYDLLZ-CMDGGOBGSA-N

>  <Smiles>
CCCCCCC/C=C/C=O

>  <Molecular Formula>
C10H18O

$$$$
(e,e)-2,4-decadienal
Actelion Java MolfileCreator 2.0

  0  0  0  0  0  0              0 V3000
M  V30 BEGIN CTAB
M  V30 COUNTS 11 10 0 0 0
M  V30 BEGIN ATOM
M  V30 1 O 0.0 0.0 0.0 0
M  V30 2 C -0.0494 1.5822 0.0 0
M  V30 3 C 1.2237 2.3981 0.0 0
M  V30 4 C 2.497 1.6687 0.0 0
M  V30 5 C 3.7702 2.4722 0.0 0
M  V30 6 C 5.0434 1.7429 0.0 0
M  V30 7 C 6.3166 2.5588 0.0 0
M  V30 8 C 7.5899 1.8294 0.0 0
M  V30 9 C 8.8631 2.6329 0.0 0
M  V30 10 C 10.1363 1.9036 0.0 0
M  V30 11 C 11.4095 2.7195 0.0 0
M  V30 END ATOM
M  V30 BEGIN BOND
M  V30 1 2 1 2
M  V30 2 1 2 3
M  V30 3 2 3 4
M  V30 4 1 4 5
M  V30 5 2 5 6
M  V30 6 1 6 7
M  V30 7 1 7 8
M  V30 8 1 8 9
M  V30 9 1 9 10
M  V30 10 1 10 11
M  V30 END BOND
M  V30 END CTAB
M  END
>  <Molecule Name>
(e,e)-2,4-decadienal

>  <Molecule Name 2>
(e,e)-2,4-decadienal

>  <Database>
Essential Oil Database

>  <InChI>
InChI=1S/C10H16O/c1-2-3-4-5-6-7-8-9-10-11/h6-10H,2-5H2,1H3/b7-6+,9-8+

>  <InChI-Key>
JZQKTMZYLHNFPL-BLHCBFLLSA-N

>  <Smiles>
CCCCC/C=C/C=C/C=O

>  <Molecular Formula>
C10H16O

$$$$
farnesyl acetone
Actelion Java MolfileCreator 2.0

  0  0  0  0  0  0              0 V3000
M  V30 BEGIN CTAB
M  V30 COUNTS 19 18 0 0 0
M  V30 BEGIN ATOM
M  V30 1 O 0.0 0.0 0.0 0
M  V30 2 C 0.722 -1.2395 0.0 0
M  V30 3 C -0.0601 -2.4791 0.0 0
M  V30 4 C 2.1662 -1.1914 0.0 0
M  V30 5 C -1.6006 -2.431 0.0 0
M  V30 6 C -2.3828 -3.6705 0.0 0
M  V30 7 C -3.9233 -3.6224 0.0 0
M  V30 8 C -4.6935 -4.862 0.0 0
M  V30 9 C -4.6935 -2.2866 0.0 0
M  V30 10 C -6.2339 -4.8138 0.0 0
M  V30 11 C -7.0042 -6.0534 0.0 0
M  V30 12 C -8.5446 -6.0053 0.0 0
M  V30 13 C -9.3269 -7.2449 0.0 0
M  V30 14 C -9.3269 -4.6694 0.0 0
M  V30 15 C -10.8673 -7.1967 0.0 0
M  V30 16 C -11.6496 -8.4363 0.0 0
M  V30 17 C -13.19 -8.3882 0.0 0
M  V30 18 C -13.9603 -9.6277 0.0 0
M  V30 19 C -13.9603 -7.0523 0.0 0
M  V30 END ATOM
M  V30 BEGIN BOND
M  V30 1 2 1 2
M  V30 2 1 2 3
M  V30 3 1 2 4
M  V30 4 1 3 5
M  V30 5 1 5 6
M  V30 6 2 6 7 CFG=2
M  V30 7 1 7 8
M  V30 8 1 7 9
M  V30 9 1 8 10
M  V30 10 1 10 11
M  V30 11 2 11 12 CFG=2
M  V30 12 1 12 13
M  V30 13 1 12 14
M  V30 14 1 13 15
M  V30 15 1 15 16
M  V30 16 2 16 17
M  V30 17 1 17 18
M  V30 18 1 17 19
M  V30 END BOND
M  V30 END CTAB
M  END
>  <Molecule Name>
farnesyl acetone

>  <Molecule Name 2>
farnesyl acetone

>  <Database>
Essential Oil Database

>  <InChI>
InChI=1S/C18H30O/c1-15(2)9-6-10-16(3)11-7-12-17(4)13-8-14-18(5)19/h9,11,13H,6-8,10,12,14H2,1-5H3

>  <InChI-Key>
LTUMRKDLVGQMJU-UHFFFAOYSA-N

>  <Smiles>
CC(C)=CCCC(C)=CCCC(C)=CCCC(C)=O

>  <Molecular Formula>
C18H30O

$$$$
hexadecanol
Actelion Java MolfileCreator 2.0

  0  0  0  0  0  0              0 V3000
M  V30 BEGIN CTAB
M  V30 COUNTS 17 16 0 0 0
M  V30 BEGIN ATOM
M  V30 1 O 0.0 0.0 0.0 0
M  V30 2 C 1.284 0.8152 0.0 0
M  V30 3 C 2.5681 0.0815 0.0 0
M  V30 4 C 3.8522 0.8968 0.0 0
M  V30 5 C 5.1363 0.163 0.0 0
M  V30 6 C 6.4204 0.9783 0.0 0
M  V30 7 C 7.7045 0.2445 0.0 0
M  V30 8 C 8.9886 1.0598 0.0 0
M  V30 9 C 10.2727 0.3261 0.0 0
M  V30 10 C 11.5568 1.1414 0.0 0
M  V30 11 C 12.8408 0.4076 0.0 0
M  V30 12 C 14.1249 1.2229 0.0 0
M  V30 13 C 15.409 0.4891 0.0 0
M  V30 14 C 16.6931 1.3044 0.0 0
M  V30 15 C 17.9772 0.5707 0.0 0
M  V30 16 C 19.2613 1.386 0.0 0
M  V30 17 C 20.5454 0.6522 0.0 0
M  V30 END ATOM
M  V30 BEGIN BOND
M  V30 1 1 1 2
M  V30 2 1 2 3
M  V30 3 1 3 4
M  V30 4 1 4 5
M  V30 5 1 5 6
M  V30 6 1 6 7
M  V30 7 1 7 8
M  V30 8 1 8 9
M  V30 9 1 9 10
M  V30 10 1 10 11
M  V30 11 1 11 12
M  V30 12 1 12 13
M  V30 13 1 13 14
M  V30 14 1 14 15
M  V30 15 1 15 16
M  V30 16 1 16 17
M  V30 END BOND
M  V30 END CTAB
M  END
>  <Molecule Name>
hexadecanol

>  <Molecule Name 2>
hexadecanol

>  <Database>
Essential Oil Database

>  <InChI>
InChI=1S/C16H34O/c1-2-3-4-5-6-7-8-9-10-11-12-13-14-15-16-17/h17H,2-16H2,1H3

>  <InChI-Key>
BXWNKGSJHAJOGX-UHFFFAOYSA-N

>  <Smiles>
CCCCCCCCCCCCCCCCO

>  <Molecular Formula>
C16H34O

$$$$
hexanal
Actelion Java MolfileCreator 2.0

  0  0  0  0  0  0              0 V3000
M  V30 BEGIN CTAB
M  V30 COUNTS 7 6 0 0 0
M  V30 BEGIN ATOM
M  V30 1 O 0.0 0.0 0.0 0
M  V30 2 C 1.284 0.8152 0.0 0
M  V30 3 C 2.5681 0.0815 0.0 0
M  V30 4 C 3.8522 0.8968 0.0 0
M  V30 5 C 5.1363 0.163 0.0 0
M  V30 6 C 6.4204 0.9783 0.0 0
M  V30 7 C 7.7045 0.2445 0.0 0
M  V30 END ATOM
M  V30 BEGIN BOND
M  V30 1 2 1 2
M  V30 2 1 2 3
M  V30 3 1 3 4
M  V30 4 1 4 5
M  V30 5 1 5 6
M  V30 6 1 6 7
M  V30 END BOND
M  V30 END CTAB
M  END
>  <Molecule Name>
hexanal

>  <Molecule Name 2>
hexanal

>  <Database>
Essential Oil Database

>  <InChI>
InChI=1S/C6H12O/c1-2-3-4-5-6-7/h6H,2-5H2,1H3

>  <InChI-Key>
JARKCYVAAOWBJS-UHFFFAOYSA-N

>  <Smiles>
CCCCCC=O

>  <Molecular Formula>
C6H12O

$$$$
myrtenol
Actelion Java MolfileCreator 2.0

  0  0  0  0  0  0              0 V3000
M  V30 BEGIN CTAB
M  V30 COUNTS 11 12 0 0 0
M  V30 BEGIN ATOM
M  V30 1 O 0.0 0.0 0.0 0
M  V30 2 C -1.5338 0.0479 0.0 0
M  V30 3 C -2.3127 1.378 0.0 0
M  V30 4 C -1.5937 2.7082 0.0 0
M  V30 5 C -3.8466 1.4259 0.0 0
M  V30 6 C -2.3726 4.0383 0.0 0
M  V30 7 C -4.6255 2.7561 0.0 0
M  V30 8 C -3.5709 2.7561 0.0 0
M  V30 9 C -3.9065 4.0862 0.0 0
M  V30 10 C -5.7998 3.7507 0.0 0
M  V30 11 C -5.7998 1.8573 0.0 0
M  V30 END ATOM
M  V30 BEGIN BOND
M  V30 1 1 1 2
M  V30 2 1 2 3
M  V30 3 2 3 4
M  V30 4 1 3 5
M  V30 5 1 4 6
M  V30 6 1 5 7
M  V30 7 1 5 8
M  V30 8 1 6 9
M  V30 9 1 7 10
M  V30 10 1 7 11
M  V30 11 1 7 9
M  V30 12 1 8 9
M  V30 END BOND
M  V30 END CTAB
M  END
>  <Molecule Name>
myrtenol

>  <Molecule Name 2>
myrtenol

>  <Database>
Essential Oil Database

>  <InChI>
InChI=1S/C10H16O/c1-10(2)8-4-3-7(6-11)9(10)5-8/h3,8-9,11H,4-6H2,1-2H3

>  <InChI-Key>
RXBQNMWIQKOSCS-UHFFFAOYSA-N

>  <Smiles>
CC1(C)C2C(CO)=CCC1C2

>  <Molecular Formula>
C10H16O

$$$$
octanoic acid
Actelion Java MolfileCreator 2.0

  0  0  0  0  0  0              0 V3000
M  V30 BEGIN CTAB
M  V30 COUNTS 10 9 0 0 0
M  V30 BEGIN ATOM
M  V30 1 O 0.0 0.0 0.0 0
M  V30 2 C -0.0468 -1.4768 0.0 0
M  V30 3 O -1.4182 -2.2152 0.0 0
M  V30 4 C 1.2306 -2.2152 0.0 0
M  V30 5 C 2.5082 -1.383 0.0 0
M  V30 6 C 3.7858 -2.1214 0.0 0
M  V30 7 C 5.0633 -1.2892 0.0 0
M  V30 8 C 6.3409 -2.0042 0.0 0
M  V30 9 C 7.6185 -1.172 0.0 0
M  V30 10 C 8.896 -1.9104 0.0 0
M  V30 END ATOM
M  V30 BEGIN BOND
M  V30 1 2 1 2
M  V30 2 1 2 3
M  V30 3 1 2 4
M  V30 4 1 4 5
M  V30 5 1 5 6
M  V30 6 1 6 7
M  V30 7 1 7 8
M  V30 8 1 8 9
M  V30 9 1 9 10
M  V30 END BOND
M  V30 END CTAB
M  END
>  <Molecule Name>
octanoic acid

>  <Molecule Name 2>
octanoic acid

>  <Database>
Essential Oil Database

>  <InChI>
InChI=1S/C8H16O2/c1-2-3-4-5-6-7-8(9)10/h2-7H2,1H3,(H,9,10)

>  <InChI-Key>
WWZKQHOCKIZLMA-UHFFFAOYSA-N

>  <Smiles>
CCCCCCCC(O)=O

>  <Molecular Formula>
C8H16O2

$$$$
p-cymen-9-ol
Actelion Java MolfileCreator 2.0

  0  0  0  0  0  0              0 V3000
M  V30 BEGIN CTAB
M  V30 COUNTS 11 11 0 0 0
M  V30 BEGIN ATOM
M  V30 1 O 0.0 0.0 0.0 0
M  V30 2 C -0.0477 1.5291 0.0 0
M  V30 3 C 1.1827 2.3057 0.0 0 CFG=1
M  V30 4 C 1.1349 3.8349 0.0 0
M  V30 5 C 2.4132 1.5889 0.0 0
M  V30 6 C 2.3654 4.5995 0.0 0
M  V30 7 C -0.1911 4.5995 0.0 0
M  V30 8 C 2.3176 6.1286 0.0 0
M  V30 9 C -0.2389 6.1286 0.0 0
M  V30 10 C 0.9915 6.9052 0.0 0
M  V30 11 C 0.9437 8.4344 0.0 0
M  V30 END ATOM
M  V30 BEGIN BOND
M  V30 1 1 1 2
M  V30 2 1 2 3
M  V30 3 1 3 4
M  V30 4 1 3 5 CFG=1
M  V30 5 2 4 6
M  V30 6 1 4 7
M  V30 7 1 6 8
M  V30 8 2 7 9
M  V30 9 2 8 10
M  V30 10 1 10 11
M  V30 11 1 9 10
M  V30 END BOND
M  V30 BEGIN COLLECTION
M  V30 MDLV30/STERAC1 ATOMS=(1 3)
M  V30 END COLLECTION
M  V30 END CTAB
M  END
>  <Molecule Name>
p-cymen-9-ol

>  <Molecule Name 2>
p-cymen-9-ol

>  <Database>
Essential Oil Database

>  <InChI>
InChI=1S/C10H14O/c1-8-3-5-10(6-4-8)9(2)7-11/h3-6,9,11H,7H2,1-2H3/t9-/m0/s1

>  <InChI-Key>
CLFDIFDNDWRHJF-VIFPVBQESA-N

>  <Smiles>
CC(CO)c1ccc(C)cc1

>  <Molecular Formula>
C10H14O

$$$$
pinocarvone
Actelion Java MolfileCreator 2.0

  0  0  0  0  0  0              0 V3000
M  V30 BEGIN CTAB
M  V30 COUNTS 11 12 0 0 0
M  V30 BEGIN ATOM
M  V30 1 O 0.0 0.0 0.0 0
M  V30 2 C -1.562 0.0488 0.0 0
M  V30 3 C -2.3553 -1.2081 0.0 0
M  V30 4 C -2.3553 1.4034 0.0 0
M  V30 5 C -1.623 -2.4651 0.0 0
M  V30 6 C -3.9173 -1.1593 0.0 0
M  V30 7 C -3.9173 1.4522 0.0 0
M  V30 8 C -4.7106 0.1952 0.0 0
M  V30 9 C -3.6366 0.1952 0.0 0
M  V30 10 C -5.9065 1.2081 0.0 0
M  V30 11 C -5.9065 -0.72 0.0 0
M  V30 END ATOM
M  V30 BEGIN BOND
M  V30 1 2 1 2
M  V30 2 1 2 3
M  V30 3 1 2 4
M  V30 4 2 3 5
M  V30 5 1 3 6
M  V30 6 1 4 7
M  V30 7 1 6 8
M  V30 8 1 6 9
M  V30 9 1 8 10
M  V30 10 1 8 11
M  V30 11 1 7 8
M  V30 12 1 7 9
M  V30 END BOND
M  V30 END CTAB
M  END
>  <Molecule Name>
pinocarvone

>  <Molecule Name 2>
pinocarvone

>  <Database>
Essential Oil Database

>  <InChI>
InChI=1S/C10H14O/c1-6-8-4-7(5-9(6)11)10(8,2)3/h7-8H,1,4-5H2,2-3H3

>  <InChI-Key>
TZDMGBLPGZXHJI-UHFFFAOYSA-N

>  <Smiles>
CC(C)(C(C1)CC2=O)C1C2=C

>  <Molecular Formula>
C10H14O

$$$$
tricosane
Actelion Java MolfileCreator 2.0

  0  0  0  0  0  0              0 V3000
M  V30 BEGIN CTAB
M  V30 COUNTS 23 22 0 0 0
M  V30 BEGIN ATOM
M  V30 1 C 0.0 0.0 0.0 0
M  V30 2 C -1.3461 0.7782 0.0 0
M  V30 3 C 1.262 0.7782 0.0 0
M  V30 4 C -2.6923 0.0841 0.0 0
M  V30 5 C 2.524 0.0841 0.0 0
M  V30 6 C -4.0384 0.8623 0.0 0
M  V30 7 C 3.786 0.8623 0.0 0
M  V30 8 C -5.3846 0.1682 0.0 0
M  V30 9 C 5.048 0.1682 0.0 0
M  V30 10 C -6.7307 0.9465 0.0 0
M  V30 11 C 6.31 0.9465 0.0 0
M  V30 12 C -8.0769 0.2524 0.0 0
M  V30 13 C 7.5721 0.2524 0.0 0
M  V30 14 C -9.423 1.0306 0.0 0
M  V30 15 C 8.8341 1.0306 0.0 0
M  V30 16 C -10.7692 0.3365 0.0 0
M  V30 17 C 10.0961 0.3365 0.0 0
M  V30 18 C -12.1153 1.1147 0.0 0
M  V30 19 C 11.3581 1.1147 0.0 0
M  V30 20 C -13.4615 0.4206 0.0 0
M  V30 21 C 12.6201 0.4206 0.0 0
M  V30 22 C -14.8076 1.1989 0.0 0
M  V30 23 C 13.8821 1.1989 0.0 0
M  V30 END ATOM
M  V30 BEGIN BOND
M  V30 1 1 1 2
M  V30 2 1 1 3
M  V30 3 1 2 4
M  V30 4 1 3 5
M  V30 5 1 4 6
M  V30 6 1 5 7
M  V30 7 1 6 8
M  V30 8 1 7 9
M  V30 9 1 8 10
M  V30 10 1 9 11
M  V30 11 1 10 12
M  V30 12 1 11 13
M  V30 13 1 12 14
M  V30 14 1 13 15
M  V30 15 1 14 16
M  V30 16 1 15 17
M  V30 17 1 16 18
M  V30 18 1 17 19
M  V30 19 1 18 20
M  V30 20 1 19 21
M  V30 21 1 20 22
M  V30 22 1 21 23
M  V30 END BOND
M  V30 END CTAB
M  END
>  <Molecule Name>
tricosane

>  <Molecule Name 2>
tricosane

>  <Database>
Essential Oil Database

>  <InChI>
InChI=1S/C23H48/c1-3-5-7-9-11-13-15-17-19-21-23-22-20-18-16-14-12-10-8-6-4-2/h3-23H2,1-2H3

>  <InChI-Key>
FIGVVZUWCLSUEI-UHFFFAOYSA-N

>  <Smiles>
CCCCCCCCCCCCCCCCCCCCCCC

>  <Molecular Formula>
C23H48

$$$$
(z)-3-hexenyl tiglate
Actelion Java MolfileCreator 2.0

  0  0  0  0  0  0              0 V3000
M  V30 BEGIN CTAB
M  V30 COUNTS 13 12 0 0 0
M  V30 BEGIN ATOM
M  V30 1 O 0.0 0.0 0.0 0
M  V30 2 C -0.0483 1.5461 0.0 0
M  V30 3 O 1.1958 2.3191 0.0 0
M  V30 4 C -1.389 2.3191 0.0 0
M  V30 5 C 2.4399 1.6065 0.0 0
M  V30 6 C -1.4374 3.8653 0.0 0
M  V30 7 C -2.7298 1.6065 0.0 0
M  V30 8 C 3.6841 2.3795 0.0 0
M  V30 9 C -2.7781 4.6504 0.0 0
M  V30 10 C 4.9282 1.6669 0.0 0
M  V30 11 C 6.1724 2.452 0.0 0
M  V30 12 C 6.1241 3.9981 0.0 0
M  V30 13 C 7.3682 4.7833 0.0 0
M  V30 END ATOM
M  V30 BEGIN BOND
M  V30 1 2 1 2
M  V30 2 1 2 3
M  V30 3 1 2 4
M  V30 4 1 3 5
M  V30 5 2 4 6
M  V30 6 1 4 7
M  V30 7 1 5 8
M  V30 8 1 6 9
M  V30 9 1 8 10
M  V30 10 2 10 11
M  V30 11 1 11 12
M  V30 12 1 12 13
M  V30 END BOND
M  V30 END CTAB
M  END
>  <Molecule Name>
(z)-3-hexenyl tiglate

>  <Molecule Name 2>
(z)-3-hexenyl tiglate

>  <Database>
Essential Oil Database

>  <InChI>
InChI=1S/C11H18O2/c1-4-6-7-8-9-13-11(12)10(3)5-2/h5-7H,4,8-9H2,1-3H3/b7-6-,10-5+

>  <InChI-Key>
JNWQKXUWZWKUAY-JQEGGOPCSA-N

>  <Smiles>
CC/C=C\CCOC(/C(\C)=C/C)=O

>  <Molecular Formula>
C11H18O2

$$$$
alpha-farnesene
Actelion Java MolfileCreator 2.0

  0  0  0  0  0  0              0 V3000
M  V30 BEGIN CTAB
M  V30 COUNTS 15 14 0 0 0
M  V30 BEGIN ATOM
M  V30 1 C 0.0 0.0 0.0 0
M  V30 2 C -0.8246 -1.2841 0.0 0
M  V30 3 C 1.4843 0.0471 0.0 0
M  V30 4 C -0.8246 1.3783 0.0 0
M  V30 5 C -0.1295 -2.5682 0.0 0
M  V30 6 C 2.1794 1.4254 0.0 0
M  V30 7 C 3.6638 1.4725 0.0 0
M  V30 8 C 4.3588 0.1884 0.0 0
M  V30 9 C 5.8432 0.2356 0.0 0
M  V30 10 C 3.5342 -1.0956 0.0 0
M  V30 11 C 6.55 -1.0484 0.0 0
M  V30 12 C 8.0344 -1.0013 0.0 0
M  V30 13 C 8.7295 -2.2854 0.0 0
M  V30 14 C 10.2138 -2.2383 0.0 0
M  V30 15 C 7.9048 -3.5695 0.0 0
M  V30 END ATOM
M  V30 BEGIN BOND
M  V30 1 1 1 2
M  V30 2 2 1 3
M  V30 3 1 1 4
M  V30 4 2 2 5
M  V30 5 1 3 6
M  V30 6 1 6 7
M  V30 7 2 7 8
M  V30 8 1 8 9
M  V30 9 1 8 10
M  V30 10 1 9 11
M  V30 11 1 11 12
M  V30 12 2 12 13
M  V30 13 1 13 14
M  V30 14 1 13 15
M  V30 END BOND
M  V30 END CTAB
M  END
>  <Molecule Name>
alpha-farnesene

>  <Molecule Name 2>
alpha-farnesene

>  <Database>
Essential Oil Database

>  <InChI>
InChI=1S/C15H24/c1-6-14(4)10-8-12-15(5)11-7-9-13(2)3/h6,9-10,12H,1,7-8,11H2,2-5H3/b14-10+,15-12+

>  <InChI-Key>
CXENHBSYCFFKJS-VDQVFBMKSA-N

>  <Smiles>
CC(C)=CCC/C(\C)=C/C/C=C(\C)/C=C

>  <Molecular Formula>
C15H24

$$$$
beta-bourbonene
Actelion Java MolfileCreator 2.0

  0  0  0  0  0  0              0 V3000
M  V30 BEGIN CTAB
M  V30 COUNTS 15 17 0 0 0
M  V30 BEGIN ATOM
M  V30 1 C 0.0 0.0 0.0 0
M  V30 2 C 0.417 -1.3583 0.0 0
M  V30 3 C -1.4536 0.5123 0.0 0 CFG=2
M  V30 4 C 0.8102 1.2391 0.0 0
M  V30 5 C -2.9787 0.56 0.0 0 CFG=2
M  V30 6 C -1.5012 2.0374 0.0 0 CFG=1
M  V30 7 C -0.0953 2.4783 0.0 0
M  V30 8 C -3.0264 2.0851 0.0 0 CFG=2
M  V30 9 C -4.4324 0.1429 0.0 0 CFG=2
M  V30 10 C -4.48 2.5974 0.0 0
M  V30 11 C -2.8357 3.5864 0.0 0
M  V30 12 C -4.9447 -1.2153 0.0 0
M  V30 13 C -5.3379 1.3821 0.0 0
M  V30 14 C -6.4341 -1.4774 0.0 0
M  V30 15 C -4.0153 -2.2519 0.0 0
M  V30 END ATOM
M  V30 BEGIN BOND
M  V30 1 2 1 2
M  V30 2 1 3 1 CFG=3
M  V30 3 1 1 4
M  V30 4 1 3 5
M  V30 5 1 3 6
M  V30 6 1 4 7
M  V30 7 1 5 8
M  V30 8 1 5 9 CFG=1
M  V30 9 1 8 10
M  V30 10 1 8 11 CFG=3
M  V30 11 1 9 12 CFG=3
M  V30 12 1 9 13
M  V30 13 1 12 14
M  V30 14 1 12 15
M  V30 15 1 6 7 CFG=3
M  V30 16 1 6 8
M  V30 17 1 10 13
M  V30 END BOND
M  V30 BEGIN COLLECTION
M  V30 MDLV30/STEABS ATOMS=(5 3 5 6 8 9)
M  V30 END COLLECTION
M  V30 END CTAB
M  END
>  <Molecule Name>
beta-bourbonene

>  <Molecule Name 2>
beta-bourbonene

>  <Database>
Essential Oil Database

>  <InChI>
InChI=1S/C15H24/c1-9(2)11-7-8-15(4)12-6-5-10(3)13(12)14(11)15/h9,11-14H,3,5-8H2,1-2,4H3/t11-,12+,13-,14+,15-/m0/s1

>  <InChI-Key>
YIRAHEODBQONHI-ZQNQSHIBSA-N

>  <Smiles>
CC(C)[C@H](CC1)[C@H]2[C@]1(C)[C@H](CC1)[C@@H]2C1=C

>  <Molecular Formula>
C15H24

$$$$
cubebol
Actelion Java MolfileCreator 2.0

  0  0  0  0  0  0              0 V3000
M  V30 BEGIN CTAB
M  V30 COUNTS 16 18 0 0 0
M  V30 BEGIN ATOM
M  V30 1 O 0.0 0.0 0.0 0
M  V30 2 C 0.1844 -1.4636 0.0 0 CFG=2
M  V30 3 C 1.6112 -1.0208 0.0 0
M  V30 4 C 0.0491 -2.9395 0.0 0
M  V30 5 C -1.3898 -1.4882 0.0 0
M  V30 6 C 2.3737 -2.2507 0.0 0 CFG=2
M  V30 7 C 3.0871 -0.8978 0.0 0 CFG=2
M  V30 8 C 1.4267 -3.4561 0.0 0
M  V30 9 C 3.1486 -3.4807 0.0 0 CFG=1
M  V30 10 C 4.563 -0.7748 0.0 0 CFG=2
M  V30 11 C 4.6245 -3.3577 0.0 0
M  V30 12 C 2.386 -4.7844 0.0 0
M  V30 13 C 5.2272 0.6272 0.0 0
M  V30 14 C 5.3256 -2.0048 0.0 0
M  V30 15 C 4.3662 1.9556 0.0 0
M  V30 16 C 6.7031 0.7502 0.0 0
M  V30 END ATOM
M  V30 BEGIN BOND
M  V30 1 1 2 1 CFG=3
M  V30 2 1 2 3
M  V30 3 1 2 4
M  V30 4 1 2 5
M  V30 5 1 6 3 CFG=1
M  V30 6 1 7 3 CFG=1
M  V30 7 1 4 8
M  V30 8 1 6 9
M  V30 9 1 7 10
M  V30 10 1 9 11
M  V30 11 1 9 12 CFG=1
M  V30 12 1 10 13 CFG=3
M  V30 13 1 10 14
M  V30 14 1 13 15
M  V30 15 1 13 16
M  V30 16 1 6 7
M  V30 17 1 6 8
M  V30 18 1 11 14
M  V30 END BOND
M  V30 BEGIN COLLECTION
M  V30 MDLV30/STEABS ATOMS=(5 2 6 7 9 10)
M  V30 END COLLECTION
M  V30 END CTAB
M  END
>  <Molecule Name>
cubebol

>  <Molecule Name 2>
cubebol

>  <Database>
Essential Oil Database

>  <InChI>
InChI=1S/C15H26O/c1-9(2)11-6-5-10(3)15-8-7-14(4,16)13(15)12(11)15/h9-13,16H,5-8H2,1-4H3/t10-,11+,12-,13?,14+,15-/m1/s1

>  <InChI-Key>
KONGRWVLXLWGDV-XWBCKKLOSA-N

>  <Smiles>
CC(C)[C@H]1[C@H](C2[C@](C)(CC3)O)[C@@]23[C@H](C)CC1

>  <Molecular Formula>
C15H26O

$$$$
(e)-2-nonenal
Actelion Java MolfileCreator 2.0

  0  0  0  0  0  0              0 V3000
M  V30 BEGIN CTAB
M  V30 COUNTS 10 9 0 0 0
M  V30 BEGIN ATOM
M  V30 1 O 0.0 0.0 0.0 0
M  V30 2 C -0.0494 1.5823 0.0 0
M  V30 3 C 1.2238 2.3858 0.0 0
M  V30 4 C 2.4971 1.6441 0.0 0
M  V30 5 C 3.7704 2.4476 0.0 0
M  V30 6 C 5.0437 1.7059 0.0 0
M  V30 7 C 6.317 2.5095 0.0 0
M  V30 8 C 7.5903 1.7677 0.0 0
M  V30 9 C 8.8636 2.5713 0.0 0
M  V30 10 C 10.1369 1.8295 0.0 0
M  V30 END ATOM
M  V30 BEGIN BOND
M  V30 1 2 1 2
M  V30 2 1 2 3
M  V30 3 2 3 4
M  V30 4 1 4 5
M  V30 5 1 5 6
M  V30 6 1 6 7
M  V30 7 1 7 8
M  V30 8 1 8 9
M  V30 9 1 9 10
M  V30 END BOND
M  V30 END CTAB
M  END
>  <Molecule Name>
(e)-2-nonenal

>  <Molecule Name 2>
(e)-2-nonenal

>  <Database>
Essential Oil Database

>  <InChI>
InChI=1S/C9H16O/c1-2-3-4-5-6-7-8-9-10/h7-9H,2-6H2,1H3/b8-7+

>  <InChI-Key>
BSAIUMLZVGUGKX-BQYQJAHWSA-N

>  <Smiles>
CCCCCC/C=C/C=O

>  <Molecular Formula>
C9H16O

$$$$
(e)-nerolidol
Actelion Java MolfileCreator 2.0

  0  0  0  0  0  0              0 V3000
M  V30 BEGIN CTAB
M  V30 COUNTS 16 15 0 0 0
M  V30 BEGIN ATOM
M  V30 1 O 0.0 0.0 0.0 0
M  V30 2 C -1.352 0.8204 0.0 0 CFG=2
M  V30 3 C -2.1608 -0.4391 0.0 0
M  V30 4 C -0.6702 2.1724 0.0 0
M  V30 5 C -2.704 1.6293 0.0 0
M  V30 6 C -1.4791 -1.6986 0.0 0
M  V30 7 C -1.4791 3.5244 0.0 0
M  V30 8 C -0.7973 4.8764 0.0 0
M  V30 9 C 0.6586 4.9226 0.0 0
M  V30 10 C 1.3404 6.2746 0.0 0
M  V30 11 C 1.3404 3.6631 0.0 0
M  V30 12 C 2.7964 6.3209 0.0 0
M  V30 13 C 3.4782 7.6729 0.0 0
M  V30 14 C 4.9342 7.7191 0.0 0
M  V30 15 C 5.6506 9.0711 0.0 0
M  V30 16 C 5.6506 6.4595 0.0 0
M  V30 END ATOM
M  V30 BEGIN BOND
M  V30 1 1 1 2
M  V30 2 1 2 3
M  V30 3 1 2 4
M  V30 4 1 2 5 CFG=1
M  V30 5 2 3 6
M  V30 6 1 4 7
M  V30 7 1 7 8
M  V30 8 2 8 9
M  V30 9 1 9 10
M  V30 10 1 9 11
M  V30 11 1 10 12
M  V30 12 1 12 13
M  V30 13 2 13 14
M  V30 14 1 14 15
M  V30 15 1 14 16
M  V30 END BOND
M  V30 BEGIN COLLECTION
M  V30 MDLV30/STEABS ATOMS=(1 2)
M  V30 END COLLECTION
M  V30 END CTAB
M  END
>  <Molecule Name>
(e)-nerolidol

>  <Molecule Name 2>
(e)-nerolidol

>  <Database>
Essential Oil Database

>  <InChI>
InChI=1S/C15H26O/c1-6-15(5,16)12-8-11-14(4)10-7-9-13(2)3/h6,9,11,16H,1,7-8,10,12H2,2-5H3/b14-11+/t15-/m1/s1

>  <InChI-Key>
FQTLCLSUCSAZDY-ATGUSINASA-N

>  <Smiles>
C[C@](CC/C=C(\C)/CCC=C(C)C)(C=C)O

>  <Molecular Formula>
C15H26O

$$$$
nonanol
Actelion Java MolfileCreator 2.0

  0  0  0  0  0  0              0 V3000
M  V30 BEGIN CTAB
M  V30 COUNTS 10 9 0 0 0
M  V30 BEGIN ATOM
M  V30 1 O 0.0 0.0 0.0 0
M  V30 2 C 1.282 0.814 0.0 0
M  V30 3 C 2.5641 0.0814 0.0 0
M  V30 4 C 3.8462 0.8954 0.0 0
M  V30 5 C 5.1283 0.1628 0.0 0
M  V30 6 C 6.4104 0.9768 0.0 0
M  V30 7 C 7.6925 0.2442 0.0 0
M  V30 8 C 8.9746 1.0582 0.0 0
M  V30 9 C 10.2567 0.3256 0.0 0
M  V30 10 C 11.5388 1.1396 0.0 0
M  V30 END ATOM
M  V30 BEGIN BOND
M  V30 1 1 1 2
M  V30 2 1 2 3
M  V30 3 1 3 4
M  V30 4 1 4 5
M  V30 5 1 5 6
M  V30 6 1 6 7
M  V30 7 1 7 8
M  V30 8 1 8 9
M  V30 9 1 9 10
M  V30 END BOND
M  V30 END CTAB
M  END
>  <Molecule Name>
nonanol

>  <Molecule Name 2>
nonanol

>  <Database>
Essential Oil Database

>  <InChI>
InChI=1S/C9H20O/c1-2-3-4-5-6-7-8-9-10/h10H,2-9H2,1H3

>  <InChI-Key>
ZWRUINPWMLAQRD-UHFFFAOYSA-N

>  <Smiles>
CCCCCCCCCO

>  <Molecular Formula>
C9H20O

$$$$
octacosane
Actelion Java MolfileCreator 2.0

  0  0  0  0  0  0              0 V3000
M  V30 BEGIN CTAB
M  V30 COUNTS 28 27 0 0 0
M  V30 BEGIN ATOM
M  V30 1 C 0.0 0.0 0.0 0
M  V30 2 C 1.2653 -0.6959 0.0 0
M  V30 3 C -1.3497 -0.6959 0.0 0
M  V30 4 C 2.5307 0.0843 0.0 0
M  V30 5 C -2.6994 0.0843 0.0 0
M  V30 6 C 3.7961 -0.6115 0.0 0
M  V30 7 C -4.0492 -0.6115 0.0 0
M  V30 8 C 5.0615 0.1687 0.0 0
M  V30 9 C -5.3989 0.1687 0.0 0
M  V30 10 C 6.3268 -0.5272 0.0 0
M  V30 11 C -6.7486 -0.5272 0.0 0
M  V30 12 C 7.5922 0.253 0.0 0
M  V30 13 C -8.0984 0.253 0.0 0
M  V30 14 C 8.8576 -0.4428 0.0 0
M  V30 15 C -9.4481 -0.4428 0.0 0
M  V30 16 C 10.123 0.3374 0.0 0
M  V30 17 C -10.7978 0.3374 0.0 0
M  V30 18 C 11.3884 -0.3585 0.0 0
M  V30 19 C -12.1476 -0.3585 0.0 0
M  V30 20 C 12.6537 0.4217 0.0 0
M  V30 21 C -13.4973 0.4217 0.0 0
M  V30 22 C 13.9191 -0.2741 0.0 0
M  V30 23 C -14.8471 -0.2741 0.0 0
M  V30 24 C 15.1845 0.5061 0.0 0
M  V30 25 C -16.1968 0.5061 0.0 0
M  V30 26 C 16.4499 -0.1898 0.0 0
M  V30 27 C -17.5465 -0.1898 0.0 0
M  V30 28 C 17.7152 0.5905 0.0 0
M  V30 END ATOM
M  V30 BEGIN BOND
M  V30 1 1 1 2
M  V30 2 1 1 3
M  V30 3 1 2 4
M  V30 4 1 3 5
M  V30 5 1 4 6
M  V30 6 1 5 7
M  V30 7 1 6 8
M  V30 8 1 7 9
M  V30 9 1 8 10
M  V30 10 1 9 11
M  V30 11 1 10 12
M  V30 12 1 11 13
M  V30 13 1 12 14
M  V30 14 1 13 15
M  V30 15 1 14 16
M  V30 16 1 15 17
M  V30 17 1 16 18
M  V30 18 1 17 19
M  V30 19 1 18 20
M  V30 20 1 19 21
M  V30 21 1 20 22
M  V30 22 1 21 23
M  V30 23 1 22 24
M  V30 24 1 23 25
M  V30 25 1 24 26
M  V30 26 1 25 27
M  V30 27 1 26 28
M  V30 END BOND
M  V30 END CTAB
M  END
>  <Molecule Name>
octacosane

>  <Molecule Name 2>
octacosane

>  <Database>
Essential Oil Database

>  <InChI>
InChI=1S/C28H58/c1-3-5-7-9-11-13-15-17-19-21-23-25-27-28-26-24-22-20-18-16-14-12-10-8-6-4-2/h3-28H2,1-2H3

>  <InChI-Key>
ZYURHZPYMFLWSH-UHFFFAOYSA-N

>  <Smiles>
CCCCCCCCCCCCCCCCCCCCCCCCCCCC

>  <Molecular Formula>
C28H58

$$$$
octanal
Actelion Java MolfileCreator 2.0

  0  0  0  0  0  0              0 V3000
M  V30 BEGIN CTAB
M  V30 COUNTS 9 8 0 0 0
M  V30 BEGIN ATOM
M  V30 1 O 0.0 0.0 0.0 0
M  V30 2 C 1.284 0.8152 0.0 0
M  V30 3 C 2.5681 0.0815 0.0 0
M  V30 4 C 3.8522 0.8968 0.0 0
M  V30 5 C 5.1363 0.163 0.0 0
M  V30 6 C 6.4204 0.9783 0.0 0
M  V30 7 C 7.7045 0.2445 0.0 0
M  V30 8 C 8.9886 1.0598 0.0 0
M  V30 9 C 10.2727 0.3261 0.0 0
M  V30 END ATOM
M  V30 BEGIN BOND
M  V30 1 2 1 2
M  V30 2 1 2 3
M  V30 3 1 3 4
M  V30 4 1 4 5
M  V30 5 1 5 6
M  V30 6 1 6 7
M  V30 7 1 7 8
M  V30 8 1 8 9
M  V30 END BOND
M  V30 END CTAB
M  END
>  <Molecule Name>
octanal

>  <Molecule Name 2>
octanal

>  <Database>
Essential Oil Database

>  <InChI>
InChI=1S/C8H16O/c1-2-3-4-5-6-7-8-9/h8H,2-7H2,1H3

>  <InChI-Key>
NUJGJRNETVAIRJ-UHFFFAOYSA-N

>  <Smiles>
CCCCCCCC=O

>  <Molecular Formula>
C8H16O

$$$$
tetradecane
Actelion Java MolfileCreator 2.0

  0  0  0  0  0  0              0 V3000
M  V30 BEGIN CTAB
M  V30 COUNTS 14 13 0 0 0
M  V30 BEGIN ATOM
M  V30 1 C 0.0 0.0 0.0 0
M  V30 2 C 1.2646 0.7798 0.0 0
M  V30 3 C -1.3489 0.7798 0.0 0
M  V30 4 C 2.5292 0.0843 0.0 0
M  V30 5 C -2.6978 0.0843 0.0 0
M  V30 6 C 3.7938 0.8641 0.0 0
M  V30 7 C -4.0467 0.8641 0.0 0
M  V30 8 C 5.0584 0.1686 0.0 0
M  V30 9 C -5.3956 0.1686 0.0 0
M  V30 10 C 6.323 0.9484 0.0 0
M  V30 11 C -6.7445 0.9484 0.0 0
M  V30 12 C 7.5876 0.2529 0.0 0
M  V30 13 C -8.0934 0.2529 0.0 0
M  V30 14 C 8.8522 1.0327 0.0 0
M  V30 END ATOM
M  V30 BEGIN BOND
M  V30 1 1 1 2
M  V30 2 1 1 3
M  V30 3 1 2 4
M  V30 4 1 3 5
M  V30 5 1 4 6
M  V30 6 1 5 7
M  V30 7 1 6 8
M  V30 8 1 7 9
M  V30 9 1 8 10
M  V30 10 1 9 11
M  V30 11 1 10 12
M  V30 12 1 11 13
M  V30 13 1 12 14
M  V30 END BOND
M  V30 END CTAB
M  END
>  <Molecule Name>
tetradecane

>  <Molecule Name 2>
tetradecane

>  <Database>
Essential Oil Database

>  <InChI>
InChI=1S/C14H30/c1-3-5-7-9-11-13-14-12-10-8-6-4-2/h3-14H2,1-2H3

>  <InChI-Key>
BGHCVCJVXZWKCC-UHFFFAOYSA-N

>  <Smiles>
CCCCCCCCCCCCCC

>  <Molecular Formula>
C14H30

$$$$
tetradecanol
Actelion Java MolfileCreator 2.0

  0  0  0  0  0  0              0 V3000
M  V30 BEGIN CTAB
M  V30 COUNTS 15 14 0 0 0
M  V30 BEGIN ATOM
M  V30 1 O 0.0 0.0 0.0 0
M  V30 2 C 1.284 0.8152 0.0 0
M  V30 3 C 2.5681 0.0815 0.0 0
M  V30 4 C 3.8522 0.8968 0.0 0
M  V30 5 C 5.1363 0.163 0.0 0
M  V30 6 C 6.4204 0.9783 0.0 0
M  V30 7 C 7.7045 0.2445 0.0 0
M  V30 8 C 8.9886 1.0598 0.0 0
M  V30 9 C 10.2727 0.3261 0.0 0
M  V30 10 C 11.5568 1.1414 0.0 0
M  V30 11 C 12.8408 0.4076 0.0 0
M  V30 12 C 14.1249 1.2229 0.0 0
M  V30 13 C 15.409 0.4891 0.0 0
M  V30 14 C 16.6931 1.3044 0.0 0
M  V30 15 C 17.9772 0.5707 0.0 0
M  V30 END ATOM
M  V30 BEGIN BOND
M  V30 1 1 1 2
M  V30 2 1 2 3
M  V30 3 1 3 4
M  V30 4 1 4 5
M  V30 5 1 5 6
M  V30 6 1 6 7
M  V30 7 1 7 8
M  V30 8 1 8 9
M  V30 9 1 9 10
M  V30 10 1 10 11
M  V30 11 1 11 12
M  V30 12 1 12 13
M  V30 13 1 13 14
M  V30 14 1 14 15
M  V30 END BOND
M  V30 END CTAB
M  END
>  <Molecule Name>
tetradecanol

>  <Molecule Name 2>
tetradecanol

>  <Database>
Essential Oil Database

>  <InChI>
InChI=1S/C14H30O/c1-2-3-4-5-6-7-8-9-10-11-12-13-14-15/h15H,2-14H2,1H3

>  <InChI-Key>
HLZKNKRTKFSKGZ-UHFFFAOYSA-N

>  <Smiles>
CCCCCCCCCCCCCCO

>  <Molecular Formula>
C14H30O

$$$$
beta-terpinene
Actelion Java MolfileCreator 2.0

  0  0  0  0  0  0              0 V3000
M  V30 BEGIN CTAB
M  V30 COUNTS 10 10 0 0 0
M  V30 BEGIN ATOM
M  V30 1 C 0.0 0.0 0.0 0
M  V30 2 C 1.2586 -0.7209 0.0 0
M  V30 3 C -0.0488 1.5641 0.0 0
M  V30 4 C -1.3564 -0.7209 0.0 0
M  V30 5 C 1.2097 -2.1873 0.0 0
M  V30 6 C -1.4052 2.3584 0.0 0
M  V30 7 C 1.2097 2.3584 0.0 0
M  V30 8 C -1.4052 -2.1873 0.0 0
M  V30 9 C -0.1466 -2.9083 0.0 0
M  V30 10 C -0.1955 -4.3747 0.0 0
M  V30 END ATOM
M  V30 BEGIN BOND
M  V30 1 2 1 2
M  V30 2 1 1 3
M  V30 3 1 1 4
M  V30 4 1 2 5
M  V30 5 1 3 6
M  V30 6 1 3 7
M  V30 7 1 4 8
M  V30 8 1 5 9
M  V30 9 2 9 10
M  V30 10 1 8 9
M  V30 END BOND
M  V30 END CTAB
M  END
>  <Molecule Name>
beta-terpinene

>  <Molecule Name 2>
beta-terpinene

>  <Database>
Essential Oil Database

>  <InChI>
InChI=1S/C10H16/c1-8(2)10-6-4-9(3)5-7-10/h6,8H,3-5,7H2,1-2H3

>  <InChI-Key>
SCWPFSIZUZUCCE-UHFFFAOYSA-N

>  <Smiles>
CC(C)C(CC1)=CCC1=C

>  <Molecular Formula>
C10H16

$$$$
decylacetate
Actelion Java MolfileCreator 2.0

  0  0  0  0  0  0              0 V3000
M  V30 BEGIN CTAB
M  V30 COUNTS 14 13 0 0 0
M  V30 BEGIN ATOM
M  V30 1 O 0.0 0.0 0.0 0
M  V30 2 C -0.0493 1.5777 0.0 0
M  V30 3 O -1.4174 2.3912 0.0 0 CHG=-1
M  V30 4 C 1.2202 2.3912 0.0 0
M  V30 5 C 2.4898 1.664 0.0 0
M  V30 6 C 3.7594 2.4652 0.0 0
M  V30 7 C 5.029 1.7379 0.0 0
M  V30 8 C 6.2986 2.5391 0.0 0
M  V30 9 C 7.5681 1.8119 0.0 0
M  V30 10 C 8.8377 2.6131 0.0 0
M  V30 11 C 10.1073 1.8858 0.0 0
M  V30 12 C 11.3769 2.687 0.0 0
M  V30 13 C 12.6465 1.9598 0.0 0
M  V30 14 C 13.9161 2.761 0.0 0
M  V30 END ATOM
M  V30 BEGIN BOND
M  V30 1 2 1 2
M  V30 2 1 2 3
M  V30 3 1 2 4
M  V30 4 1 4 5
M  V30 5 1 5 6
M  V30 6 1 6 7
M  V30 7 1 7 8
M  V30 8 1 8 9
M  V30 9 1 9 10
M  V30 10 1 10 11
M  V30 11 1 11 12
M  V30 12 1 12 13
M  V30 13 1 13 14
M  V30 END BOND
M  V30 END CTAB
M  END
>  <Molecule Name>
decylacetate

>  <Molecule Name 2>
decylacetate

>  <Database>
Essential Oil Database

>  <InChI>
InChI=1S/C12H24O2/c1-2-3-4-5-6-7-8-9-10-11-12(13)14/h2-11H2,1H3,(H,13,14)/p-1

>  <InChI-Key>
POULHZVOKOAJMA-UHFFFAOYSA-M

>  <Smiles>
CCCCCCCCCCCC([O-])=O

>  <Molecular Formula>
C12H23O2

$$$$
(e)-cinnamyl isovalerate
Actelion Java MolfileCreator 2.0

  0  0  0  0  0  0              0 V3000
M  V30 BEGIN CTAB
M  V30 COUNTS 16 16 0 0 0
M  V30 BEGIN ATOM
M  V30 1 O 0.0 0.0 0.0 0
M  V30 2 C -0.0491 -1.475 0.0 0
M  V30 3 O 1.2169 -2.2126 0.0 0
M  V30 4 C -1.4136 -2.2126 0.0 0
M  V30 5 C 2.483 -1.4136 0.0 0
M  V30 6 C -2.778 -1.4136 0.0 0
M  V30 7 C 3.7491 -2.1511 0.0 0
M  V30 8 C -4.1425 -2.1511 0.0 0
M  V30 9 C -2.8272 0.1598 0.0 0
M  V30 10 C 5.0152 -1.3521 0.0 0
M  V30 11 C 6.2813 -2.0896 0.0 0
M  V30 12 C 7.5474 -1.2906 0.0 0
M  V30 13 C 6.2322 -3.5647 0.0 0
M  V30 14 C 8.8135 -2.0282 0.0 0
M  V30 15 C 7.4983 -4.3023 0.0 0
M  V30 16 C 8.7644 -3.5033 0.0 0
M  V30 END ATOM
M  V30 BEGIN BOND
M  V30 1 2 1 2
M  V30 2 1 2 3
M  V30 3 1 2 4
M  V30 4 1 3 5
M  V30 5 1 4 6
M  V30 6 1 5 7
M  V30 7 1 6 8
M  V30 8 1 6 9
M  V30 9 2 7 10
M  V30 10 1 10 11
M  V30 11 2 11 12
M  V30 12 1 11 13
M  V30 13 1 12 14
M  V30 14 2 13 15
M  V30 15 2 14 16
M  V30 16 1 15 16
M  V30 END BOND
M  V30 END CTAB
M  END
>  <Molecule Name>
(e)-cinnamyl isovalerate

>  <Molecule Name 2>
(e)-cinnamyl isovalerate

>  <Database>
Essential Oil Database

>  <InChI>
InChI=1S/C14H18O2/c1-12(2)11-14(15)16-10-6-9-13-7-4-3-5-8-13/h3-9,12H,10-11H2,1-2H3/b9-6+

>  <InChI-Key>
FOCMOGKCPPTERB-RMKNXTFCSA-N

>  <Smiles>
CC(C)CC(OC/C=C/c1ccccc1)=O

>  <Molecular Formula>
C14H18O2

$$$$
beta-cymene
Actelion Java MolfileCreator 2.0

  0  0  0  0  0  0              0 V3000
M  V30 BEGIN CTAB
M  V30 COUNTS 10 10 0 0 0
M  V30 BEGIN ATOM
M  V30 1 C 0.0 0.0 0.0 0
M  V30 2 C -1.3385 0.7717 0.0 0
M  V30 3 C -0.0482 -1.447 0.0 0
M  V30 4 C 1.242 0.7717 0.0 0
M  V30 5 C -2.677 0.0602 0.0 0
M  V30 6 C -1.3867 2.3153 0.0 0
M  V30 7 C -1.3867 -2.1585 0.0 0
M  V30 8 C 1.1938 2.3153 0.0 0
M  V30 9 C 2.4841 0.0602 0.0 0
M  V30 10 C -2.7253 -1.3867 0.0 0
M  V30 END ATOM
M  V30 BEGIN BOND
M  V30 1 2 1 2
M  V30 2 1 1 3
M  V30 3 1 1 4
M  V30 4 1 2 5
M  V30 5 1 2 6
M  V30 6 2 3 7
M  V30 7 1 4 8
M  V30 8 1 4 9
M  V30 9 2 5 10
M  V30 10 1 7 10
M  V30 END BOND
M  V30 END CTAB
M  END
>  <Molecule Name>
beta-cymene

>  <Molecule Name 2>
beta-cymene

>  <Database>
Essential Oil Database

>  <InChI>
InChI=1S/C10H14/c1-8(2)10-7-5-4-6-9(10)3/h4-8H,1-3H3

>  <InChI-Key>
WWRCMNKATXZARA-UHFFFAOYSA-N

>  <Smiles>
CC(C)c1c(C)cccc1

>  <Molecular Formula>
C10H14

$$$$
bornylene
Actelion Java MolfileCreator 2.0

  0  0  0  0  0  0              0 V3000
M  V30 BEGIN CTAB
M  V30 COUNTS 10 11 0 0 0
M  V30 BEGIN ATOM
M  V30 1 C 0.0 0.0 0.0 0
M  V30 2 C -0.047 1.5055 0.0 0
M  V30 3 C -1.3055 -0.6939 0.0 0
M  V30 4 C -1.3526 2.27 0.0 0
M  V30 5 C -1.729 0.8115 0.0 0
M  V30 6 C -2.6111 0.0588 0.0 0
M  V30 7 C -1.3526 -2.1053 0.0 0
M  V30 8 C -2.6582 1.5761 0.0 0
M  V30 9 C -3.1757 1.282 0.0 0
M  V30 10 C -3.1757 0.4351 0.0 0
M  V30 END ATOM
M  V30 BEGIN BOND
M  V30 1 2 1 2
M  V30 2 1 1 3
M  V30 3 1 2 4
M  V30 4 1 3 5
M  V30 5 1 3 6
M  V30 6 1 3 7
M  V30 7 1 4 8
M  V30 8 1 5 9
M  V30 9 1 5 10
M  V30 10 1 4 5
M  V30 11 1 6 8
M  V30 END BOND
M  V30 END CTAB
M  END
>  <Molecule Name>
bornylene

>  <Molecule Name 2>
bornylene

>  <Database>
Essential Oil Database

>  <InChI>
InChI=1S/C10H16/c1-9(2)8-4-6-10(9,3)7-5-8/h4,6,8H,5,7H2,1-3H3

>  <InChI-Key>
KUKRLSJNTMLPPK-UHFFFAOYSA-N

>  <Smiles>
CC1(C)C2(C)C=CC1CC2

>  <Molecular Formula>
C10H16

$$$$
citronellyl acetate
Actelion Java MolfileCreator 2.0

  0  0  0  0  0  0              0 V3000
M  V30 BEGIN CTAB
M  V30 COUNTS 14 13 0 0 0
M  V30 BEGIN ATOM
M  V30 1 O 0.0 0.0 0.0 0
M  V30 2 C -0.0491 1.5739 0.0 0
M  V30 3 O 1.2173 2.3855 0.0 0
M  V30 4 C -1.4141 2.3855 0.0 0
M  V30 5 C 2.4839 1.6477 0.0 0
M  V30 6 C 3.7504 2.4593 0.0 0
M  V30 7 C 5.017 1.7215 0.0 0 CFG=2
M  V30 8 C 6.2835 2.5331 0.0 0
M  V30 9 C 4.9678 0.2459 0.0 0
M  V30 10 C 7.5501 1.7953 0.0 0
M  V30 11 C 8.8166 2.6068 0.0 0
M  V30 12 C 10.0832 1.869 0.0 0
M  V30 13 C 11.3498 2.6806 0.0 0
M  V30 14 C 10.034 0.3934 0.0 0
M  V30 END ATOM
M  V30 BEGIN BOND
M  V30 1 2 1 2
M  V30 2 1 2 3
M  V30 3 1 2 4
M  V30 4 1 3 5
M  V30 5 1 5 6
M  V30 6 1 6 7
M  V30 7 1 7 8
M  V30 8 1 7 9 CFG=3
M  V30 9 1 8 10
M  V30 10 1 10 11
M  V30 11 2 11 12
M  V30 12 1 12 13
M  V30 13 1 12 14
M  V30 END BOND
M  V30 BEGIN COLLECTION
M  V30 MDLV30/STERAC1 ATOMS=(1 7)
M  V30 END COLLECTION
M  V30 END CTAB
M  END
>  <Molecule Name>
citronellyl acetate

>  <Molecule Name 2>
citronellyl acetate

>  <Database>
Essential Oil Database

>  <InChI>
InChI=1S/C12H22O2/c1-10(2)6-5-7-11(3)8-9-14-12(4)13/h6,11H,5,7-9H2,1-4H3/t11-/m0/s1

>  <InChI-Key>
JOZKFWLRHCDGJA-NSHDSACASA-N

>  <Smiles>
CC(CCC=C(C)C)CCOC(C)=O

>  <Molecular Formula>
C12H22O2

$$$$
decanol
Actelion Java MolfileCreator 2.0

  0  0  0  0  0  0              0 V3000
M  V30 BEGIN CTAB
M  V30 COUNTS 11 10 0 0 0
M  V30 BEGIN ATOM
M  V30 1 O 0.0 0.0 0.0 0
M  V30 2 C 1.284 0.8152 0.0 0
M  V30 3 C 2.5681 0.0815 0.0 0
M  V30 4 C 3.8522 0.8968 0.0 0
M  V30 5 C 5.1363 0.163 0.0 0
M  V30 6 C 6.4204 0.9783 0.0 0
M  V30 7 C 7.7045 0.2445 0.0 0
M  V30 8 C 8.9886 1.0598 0.0 0
M  V30 9 C 10.2727 0.3261 0.0 0
M  V30 10 C 11.5568 1.1414 0.0 0
M  V30 11 C 12.8408 0.4076 0.0 0
M  V30 END ATOM
M  V30 BEGIN BOND
M  V30 1 1 1 2
M  V30 2 1 2 3
M  V30 3 1 3 4
M  V30 4 1 4 5
M  V30 5 1 5 6
M  V30 6 1 6 7
M  V30 7 1 7 8
M  V30 8 1 8 9
M  V30 9 1 9 10
M  V30 10 1 10 11
M  V30 END BOND
M  V30 END CTAB
M  END
>  <Molecule Name>
decanol

>  <Molecule Name 2>
decanol

>  <Database>
Essential Oil Database

>  <InChI>
InChI=1S/C10H22O/c1-2-3-4-5-6-7-8-9-10-11/h11H,2-10H2,1H3

>  <InChI-Key>
MWKFXSUHUHTGQN-UHFFFAOYSA-N

>  <Smiles>
CCCCCCCCCCO

>  <Molecular Formula>
C10H22O

$$$$
dihydrocarveol
Actelion Java MolfileCreator 2.0

  0  0  0  0  0  0              0 V3000
M  V30 BEGIN CTAB
M  V30 COUNTS 11 11 0 0 0
M  V30 BEGIN ATOM
M  V30 1 O 0.0 0.0 0.0 0
M  V30 2 C 1.2756 -0.7307 0.0 0
M  V30 3 C 2.5512 0.0619 0.0 0
M  V30 4 C 1.226 -2.2168 0.0 0
M  V30 5 C 3.8269 -0.6687 0.0 0
M  V30 6 C 2.5017 1.6471 0.0 0
M  V30 7 C 2.5017 -2.9475 0.0 0
M  V30 8 C 3.7773 -2.1549 0.0 0
M  V30 9 C 2.4521 -4.4337 0.0 0
M  V30 10 C 1.0774 -5.1768 0.0 0
M  V30 11 C 3.7278 -5.1768 0.0 0
M  V30 END ATOM
M  V30 BEGIN BOND
M  V30 1 1 1 2
M  V30 2 1 2 3
M  V30 3 1 2 4
M  V30 4 1 3 5
M  V30 5 1 3 6
M  V30 6 1 4 7
M  V30 7 1 5 8
M  V30 8 1 7 9
M  V30 9 2 9 10
M  V30 10 1 9 11
M  V30 11 1 7 8
M  V30 END BOND
M  V30 END CTAB
M  END
>  <Molecule Name>
dihydrocarveol

>  <Molecule Name 2>
dihydrocarveol

>  <Database>
Essential Oil Database

>  <InChI>
InChI=1S/C10H18O/c1-7(2)9-5-4-8(3)10(11)6-9/h8-11H,1,4-6H2,2-3H3

>  <InChI-Key>
KRCZYMFUWVJCLI-UHFFFAOYSA-N

>  <Smiles>
CC(CCC(C1)C(C)=C)C1O

>  <Molecular Formula>
C10H18O

$$$$
(e)-cinnamyl valerate
Actelion Java MolfileCreator 2.0

  0  0  0  0  0  0              0 V3000
M  V30 BEGIN CTAB
M  V30 COUNTS 16 16 0 0 0
M  V30 BEGIN ATOM
M  V30 1 O 0.0 0.0 0.0 0
M  V30 2 C -0.0465 -1.4662 0.0 0
M  V30 3 O 1.2218 -2.1877 0.0 0
M  V30 4 C -1.408 -2.1877 0.0 0
M  V30 5 C 2.4903 -1.3615 0.0 0
M  V30 6 C -2.7696 -1.3615 0.0 0
M  V30 7 C 3.7587 -2.0597 0.0 0
M  V30 8 C -4.1311 -2.0597 0.0 0
M  V30 9 C 5.0272 -1.2335 0.0 0
M  V30 10 C -5.4927 -1.2335 0.0 0
M  V30 11 C 6.2956 -1.9317 0.0 0
M  V30 12 C 7.5641 -1.1055 0.0 0
M  V30 13 C 6.2491 -3.398 0.0 0
M  V30 14 C 8.8325 -1.8037 0.0 0
M  V30 15 C 7.5175 -4.1311 0.0 0
M  V30 16 C 8.786 -3.27 0.0 0
M  V30 END ATOM
M  V30 BEGIN BOND
M  V30 1 2 1 2
M  V30 2 1 2 3
M  V30 3 1 2 4
M  V30 4 1 3 5
M  V30 5 1 4 6
M  V30 6 1 5 7
M  V30 7 1 6 8
M  V30 8 2 7 9
M  V30 9 1 8 10
M  V30 10 1 9 11
M  V30 11 2 11 12
M  V30 12 1 11 13
M  V30 13 1 12 14
M  V30 14 2 13 15
M  V30 15 2 14 16
M  V30 16 1 15 16
M  V30 END BOND
M  V30 END CTAB
M  END
>  <Molecule Name>
(e)-cinnamyl valerate

>  <Molecule Name 2>
(e)-cinnamyl valerate

>  <Database>
Essential Oil Database

>  <InChI>
InChI=1S/C14H18O2/c1-2-3-11-14(15)16-12-7-10-13-8-5-4-6-9-13/h4-10H,2-3,11-12H2,1H3/b10-7+

>  <InChI-Key>
FLSKWIBFXUNBAW-JXMROGBWSA-N

>  <Smiles>
CCCCC(OC/C=C/c1ccccc1)=O

>  <Molecular Formula>
C14H18O2

$$$$
heptyl acetate
Actelion Java MolfileCreator 2.0

  0  0  0  0  0  0              0 V3000
M  V30 BEGIN CTAB
M  V30 COUNTS 11 10 0 0 0
M  V30 BEGIN ATOM
M  V30 1 O 0.0 0.0 0.0 0
M  V30 2 C 1.2728 0.8032 0.0 0
M  V30 3 O 2.5456 0.0617 0.0 0
M  V30 4 C 1.2233 2.3849 0.0 0
M  V30 5 C 3.8184 0.865 0.0 0
M  V30 6 C 5.0912 0.1235 0.0 0
M  V30 7 C 6.364 0.9268 0.0 0
M  V30 8 C 7.6369 0.1853 0.0 0
M  V30 9 C 8.9097 0.9885 0.0 0
M  V30 10 C 10.1825 0.2471 0.0 0
M  V30 11 C 11.4553 1.0503 0.0 0
M  V30 END ATOM
M  V30 BEGIN BOND
M  V30 1 2 1 2
M  V30 2 1 2 3
M  V30 3 1 2 4
M  V30 4 1 3 5
M  V30 5 1 5 6
M  V30 6 1 6 7
M  V30 7 1 7 8
M  V30 8 1 8 9
M  V30 9 1 9 10
M  V30 10 1 10 11
M  V30 END BOND
M  V30 END CTAB
M  END
>  <Molecule Name>
heptyl acetate

>  <Molecule Name 2>
heptyl acetate

>  <Database>
Essential Oil Database

>  <InChI>
InChI=1S/C9H18O2/c1-3-4-5-6-7-8-11-9(2)10/h3-8H2,1-2H3

>  <InChI-Key>
ZCZSIDMEHXZRLG-UHFFFAOYSA-N

>  <Smiles>
CCCCCCCOC(C)=O

>  <Molecular Formula>
C9H18O2

$$$$
hexyl-2-methyl butyrate
Actelion Java MolfileCreator 2.0

  0  0  0  0  0  0              0 V3000
M  V30 BEGIN CTAB
M  V30 COUNTS 13 12 0 0 0
M  V30 BEGIN ATOM
M  V30 1 O 0.0 0.0 0.0 0
M  V30 2 C -0.0484 1.5511 0.0 0
M  V30 3 O 1.1996 2.3508 0.0 0
M  V30 4 C -1.3935 2.3508 0.0 0 CFG=2
M  V30 5 C 2.4478 1.6238 0.0 0
M  V30 6 C -2.7386 1.6238 0.0 0
M  V30 7 C -1.442 3.9019 0.0 0
M  V30 8 C 3.6959 2.4114 0.0 0
M  V30 9 C -4.0837 2.4114 0.0 0
M  V30 10 C 4.9441 1.6844 0.0 0
M  V30 11 C 6.1922 2.472 0.0 0
M  V30 12 C 7.4404 1.7449 0.0 0
M  V30 13 C 8.6885 2.5326 0.0 0
M  V30 END ATOM
M  V30 BEGIN BOND
M  V30 1 2 1 2
M  V30 2 1 2 3
M  V30 3 1 2 4
M  V30 4 1 3 5
M  V30 5 1 4 6
M  V30 6 1 4 7 CFG=3
M  V30 7 1 5 8
M  V30 8 1 6 9
M  V30 9 1 8 10
M  V30 10 1 10 11
M  V30 11 1 11 12
M  V30 12 1 12 13
M  V30 END BOND
M  V30 BEGIN COLLECTION
M  V30 MDLV30/STERAC1 ATOMS=(1 4)
M  V30 END COLLECTION
M  V30 END CTAB
M  END
>  <Molecule Name>
hexyl-2-methyl butyrate

>  <Molecule Name 2>
hexyl-2-methyl butyrate

>  <Database>
Essential Oil Database

>  <InChI>
InChI=1S/C11H22O2/c1-4-6-7-8-9-13-11(12)10(3)5-2/h10H,4-9H2,1-3H3/t10-/m0/s1

>  <InChI-Key>
YUECNVSODFDKOQ-JTQLQIEISA-N

>  <Smiles>
CCCCCCOC(C(C)CC)=O

>  <Molecular Formula>
C11H22O2

$$$$
hexyl isovalerate
Actelion Java MolfileCreator 2.0

  0  0  0  0  0  0              0 V3000
M  V30 BEGIN CTAB
M  V30 COUNTS 13 12 0 0 0
M  V30 BEGIN ATOM
M  V30 1 O 0.0 0.0 0.0 0
M  V30 2 C -0.0478 1.5298 0.0 0
M  V30 3 O -1.3744 2.3067 0.0 0
M  V30 4 C 1.1832 2.3067 0.0 0
M  V30 5 C -2.7011 1.5895 0.0 0
M  V30 6 C 2.4142 1.5895 0.0 0
M  V30 7 C -4.0277 2.3784 0.0 0
M  V30 8 C 3.6453 2.3784 0.0 0
M  V30 9 C 2.3664 0.1553 0.0 0
M  V30 10 C -5.3544 1.6613 0.0 0
M  V30 11 C -6.681 2.4501 0.0 0
M  V30 12 C -8.0077 1.733 0.0 0
M  V30 13 C -9.3344 2.5218 0.0 0
M  V30 END ATOM
M  V30 BEGIN BOND
M  V30 1 2 1 2
M  V30 2 1 2 3
M  V30 3 1 2 4
M  V30 4 1 3 5
M  V30 5 1 4 6
M  V30 6 1 5 7
M  V30 7 1 6 8
M  V30 8 1 6 9
M  V30 9 1 7 10
M  V30 10 1 10 11
M  V30 11 1 11 12
M  V30 12 1 12 13
M  V30 END BOND
M  V30 END CTAB
M  END
>  <Molecule Name>
hexyl isovalerate

>  <Molecule Name 2>
hexyl isovalerate

>  <Database>
Essential Oil Database

>  <InChI>
InChI=1S/C11H22O2/c1-4-5-6-7-8-13-11(12)9-10(2)3/h10H,4-9H2,1-3H3

>  <InChI-Key>
RSDDTPVXLMVLQE-UHFFFAOYSA-N

>  <Smiles>
CCCCCCOC(CC(C)C)=O

>  <Molecular Formula>
C11H22O2

$$$$
octyl acetate
Actelion Java MolfileCreator 2.0

  0  0  0  0  0  0              0 V3000
M  V30 BEGIN CTAB
M  V30 COUNTS 12 11 0 0 0
M  V30 BEGIN ATOM
M  V30 1 O 0.0 0.0 0.0 0
M  V30 2 C 1.2859 -0.7078 0.0 0
M  V30 3 O 2.5718 0.1297 0.0 0
M  V30 4 C 1.2387 -2.1943 0.0 0
M  V30 5 C 3.8577 -0.578 0.0 0
M  V30 6 C 5.1437 0.2595 0.0 0
M  V30 7 C 6.4296 -0.4483 0.0 0
M  V30 8 C 7.7155 0.3893 0.0 0
M  V30 9 C 9.0015 -0.3185 0.0 0
M  V30 10 C 10.2874 0.519 0.0 0
M  V30 11 C 11.5733 -0.1887 0.0 0
M  V30 12 C 12.8592 0.6488 0.0 0
M  V30 END ATOM
M  V30 BEGIN BOND
M  V30 1 2 1 2
M  V30 2 1 2 3
M  V30 3 1 2 4
M  V30 4 1 3 5
M  V30 5 1 5 6
M  V30 6 1 6 7
M  V30 7 1 7 8
M  V30 8 1 8 9
M  V30 9 1 9 10
M  V30 10 1 10 11
M  V30 11 1 11 12
M  V30 END BOND
M  V30 END CTAB
M  END
>  <Molecule Name>
octyl acetate

>  <Molecule Name 2>
octyl acetate

>  <Database>
Essential Oil Database

>  <InChI>
InChI=1S/C10H20O2/c1-3-4-5-6-7-8-9-12-10(2)11/h3-9H2,1-2H3

>  <InChI-Key>
YLYBTZIQSIBWLI-UHFFFAOYSA-N

>  <Smiles>
CCCCCCCCOC(C)=O

>  <Molecular Formula>
C10H20O2

$$$$
2-decylfuran
Actelion Java MolfileCreator 2.0

  0  0  0  0  0  0              0 V3000
M  V30 BEGIN CTAB
M  V30 COUNTS 15 15 0 0 0
M  V30 BEGIN ATOM
M  V30 1 O 0.0 0.0 0.0 0
M  V30 2 C 0.108 -1.4647 0.0 0
M  V30 3 C -1.5368 0.3722 0.0 0
M  V30 4 C -1.3327 -2.0411 0.0 0
M  V30 5 C 1.3807 -2.1971 0.0 0
M  V30 6 C -2.3412 -0.9004 0.0 0
M  V30 7 C 2.6534 -1.3927 0.0 0
M  V30 8 C 3.9261 -2.1251 0.0 0
M  V30 9 C 5.1988 -1.3207 0.0 0
M  V30 10 C 6.4715 -2.0531 0.0 0
M  V30 11 C 7.7442 -1.2486 0.0 0
M  V30 12 C 9.0169 -1.981 0.0 0
M  V30 13 C 10.2896 -1.1766 0.0 0
M  V30 14 C 11.5623 -1.909 0.0 0
M  V30 15 C 12.835 -1.1046 0.0 0
M  V30 END ATOM
M  V30 BEGIN BOND
M  V30 1 1 1 2
M  V30 2 1 1 3
M  V30 3 2 2 4
M  V30 4 1 2 5
M  V30 5 2 3 6
M  V30 6 1 5 7
M  V30 7 1 7 8
M  V30 8 1 8 9
M  V30 9 1 9 10
M  V30 10 1 10 11
M  V30 11 1 11 12
M  V30 12 1 12 13
M  V30 13 1 13 14
M  V30 14 1 14 15
M  V30 15 1 4 6
M  V30 END BOND
M  V30 END CTAB
M  END
>  <Molecule Name>
2-decylfuran

>  <Molecule Name 2>
2-decylfuran

>  <Database>
Essential Oil Database

>  <InChI>
InChI=1S/C14H24O/c1-2-3-4-5-6-7-8-9-11-14-12-10-13-15-14/h10,12-13H,2-9,11H2,1H3

>  <InChI-Key>
PIBKIYYQPWSUDP-UHFFFAOYSA-N

>  <Smiles>
CCCCCCCCCCc1ccc[o]1

>  <Molecular Formula>
C14H24O

$$$$
2-nonyl furan
Actelion Java MolfileCreator 2.0

  0  0  0  0  0  0              0 V3000
M  V30 BEGIN CTAB
M  V30 COUNTS 14 14 0 0 0
M  V30 BEGIN ATOM
M  V30 1 O 0.0 0.0 0.0 0
M  V30 2 C 1.3535 -0.56 0.0 0
M  V30 3 C -1.0735 -1.0968 0.0 0
M  V30 4 C 1.1551 -2.0303 0.0 0
M  V30 5 C 2.637 0.2683 0.0 0
M  V30 6 C -0.3733 -2.3803 0.0 0
M  V30 7 C 3.9206 -0.4317 0.0 0
M  V30 8 C 5.2041 0.3967 0.0 0
M  V30 9 C 6.4876 -0.3033 0.0 0
M  V30 10 C 7.7712 0.525 0.0 0
M  V30 11 C 9.0547 -0.175 0.0 0
M  V30 12 C 10.3382 0.6534 0.0 0
M  V30 13 C 11.6218 -0.0466 0.0 0
M  V30 14 C 12.9053 0.7817 0.0 0
M  V30 END ATOM
M  V30 BEGIN BOND
M  V30 1 1 1 2
M  V30 2 1 1 3
M  V30 3 2 2 4
M  V30 4 1 2 5
M  V30 5 2 3 6
M  V30 6 1 5 7
M  V30 7 1 7 8
M  V30 8 1 8 9
M  V30 9 1 9 10
M  V30 10 1 10 11
M  V30 11 1 11 12
M  V30 12 1 12 13
M  V30 13 1 13 14
M  V30 14 1 4 6
M  V30 END BOND
M  V30 END CTAB
M  END
>  <Molecule Name>
2-nonyl furan

>  <Molecule Name 2>
2-nonyl furan

>  <Database>
Essential Oil Database

>  <InChI>
InChI=1S/C13H22O/c1-2-3-4-5-6-7-8-10-13-11-9-12-14-13/h9,11-12H,2-8,10H2,1H3

>  <InChI-Key>
BIRIRZLNKYBSCQ-UHFFFAOYSA-N

>  <Smiles>
CCCCCCCCCc1ccc[o]1

>  <Molecular Formula>
C13H22O

$$$$
(e)-2-dodecenal
Actelion Java MolfileCreator 2.0

  0  0  0  0  0  0              0 V3000
M  V30 BEGIN CTAB
M  V30 COUNTS 13 12 0 0 0
M  V30 BEGIN ATOM
M  V30 1 O 0.0 0.0 0.0 0
M  V30 2 C -0.0494 1.5825 0.0 0
M  V30 3 C 1.2239 2.3861 0.0 0
M  V30 4 C 2.4974 1.6443 0.0 0
M  V30 5 C 3.7708 2.4603 0.0 0
M  V30 6 C 5.0442 1.7185 0.0 0
M  V30 7 C 6.3176 2.5221 0.0 0
M  V30 8 C 7.5911 1.7803 0.0 0
M  V30 9 C 8.8645 2.5839 0.0 0
M  V30 10 C 10.1379 1.8421 0.0 0
M  V30 11 C 11.4113 2.6457 0.0 0
M  V30 12 C 12.6848 1.9039 0.0 0
M  V30 13 C 13.9582 2.7199 0.0 0
M  V30 END ATOM
M  V30 BEGIN BOND
M  V30 1 2 1 2
M  V30 2 1 2 3
M  V30 3 2 3 4
M  V30 4 1 4 5
M  V30 5 1 5 6
M  V30 6 1 6 7
M  V30 7 1 7 8
M  V30 8 1 8 9
M  V30 9 1 9 10
M  V30 10 1 10 11
M  V30 11 1 11 12
M  V30 12 1 12 13
M  V30 END BOND
M  V30 END CTAB
M  END
>  <Molecule Name>
(e)-2-dodecenal

>  <Molecule Name 2>
(e)-2-dodecenal

>  <Database>
Essential Oil Database

>  <InChI>
InChI=1S/C12H22O/c1-2-3-4-5-6-7-8-9-10-11-12-13/h10-12H,2-9H2,1H3/b11-10+

>  <InChI-Key>
SSNZFFBDIMUILS-ZHACJKMWSA-N

>  <Smiles>
CCCCCCCCC/C=C/C=O

>  <Molecular Formula>
C12H22O

$$$$
(e)-2-pentadecenal
Actelion Java MolfileCreator 2.0

  0  0  0  0  0  0              0 V3000
M  V30 BEGIN CTAB
M  V30 COUNTS 16 15 0 0 0
M  V30 BEGIN ATOM
M  V30 1 O 0.0 0.0 0.0 0
M  V30 2 C -0.0495 1.5867 0.0 0
M  V30 3 C 1.2272 2.3925 0.0 0
M  V30 4 C 2.504 1.6487 0.0 0
M  V30 5 C 3.7809 2.4544 0.0 0
M  V30 6 C 5.0577 1.7107 0.0 0
M  V30 7 C 6.3345 2.5164 0.0 0
M  V30 8 C 7.6114 1.7726 0.0 0
M  V30 9 C 8.8882 2.5784 0.0 0
M  V30 10 C 10.165 1.8346 0.0 0
M  V30 11 C 11.4419 2.6404 0.0 0
M  V30 12 C 12.7187 1.8966 0.0 0
M  V30 13 C 13.9955 2.7024 0.0 0
M  V30 14 C 15.2724 1.9586 0.0 0
M  V30 15 C 16.5492 2.7644 0.0 0
M  V30 16 C 17.826 2.0206 0.0 0
M  V30 END ATOM
M  V30 BEGIN BOND
M  V30 1 2 1 2
M  V30 2 1 2 3
M  V30 3 2 3 4
M  V30 4 1 4 5
M  V30 5 1 5 6
M  V30 6 1 6 7
M  V30 7 1 7 8
M  V30 8 1 8 9
M  V30 9 1 9 10
M  V30 10 1 10 11
M  V30 11 1 11 12
M  V30 12 1 12 13
M  V30 13 1 13 14
M  V30 14 1 14 15
M  V30 15 1 15 16
M  V30 END BOND
M  V30 END CTAB
M  END
>  <Molecule Name>
(e)-2-pentadecenal

>  <Molecule Name 2>
(e)-2-pentadecenal

>  <Database>
Essential Oil Database

>  <InChI>
InChI=1S/C15H28O/c1-2-3-4-5-6-7-8-9-10-11-12-13-14-15-16/h13-15H,2-12H2,1H3/b14-13+

>  <InChI-Key>
MLTULPRRIKTZBN-BUHFOSPRSA-N

>  <Smiles>
CCCCCCCCCCCC/C=C/C=O

>  <Molecular Formula>
C15H28O

$$$$
(e)-2-tetradecenal
Actelion Java MolfileCreator 2.0

  0  0  0  0  0  0              0 V3000
M  V30 BEGIN CTAB
M  V30 COUNTS 15 14 0 0 0
M  V30 BEGIN ATOM
M  V30 1 O 0.0 0.0 0.0 0
M  V30 2 C -0.0495 1.5845 0.0 0
M  V30 3 C 1.2255 2.3892 0.0 0
M  V30 4 C 2.5006 1.6464 0.0 0
M  V30 5 C 3.7757 2.4511 0.0 0
M  V30 6 C 5.0507 1.7083 0.0 0
M  V30 7 C 6.3258 2.513 0.0 0
M  V30 8 C 7.6009 1.7702 0.0 0
M  V30 9 C 8.8759 2.5749 0.0 0
M  V30 10 C 10.151 1.8321 0.0 0
M  V30 11 C 11.4261 2.6368 0.0 0
M  V30 12 C 12.7012 1.894 0.0 0
M  V30 13 C 13.9762 2.6986 0.0 0
M  V30 14 C 15.2513 1.9559 0.0 0
M  V30 15 C 16.5264 2.7729 0.0 0
M  V30 END ATOM
M  V30 BEGIN BOND
M  V30 1 2 1 2
M  V30 2 1 2 3
M  V30 3 2 3 4
M  V30 4 1 4 5
M  V30 5 1 5 6
M  V30 6 1 6 7
M  V30 7 1 7 8
M  V30 8 1 8 9
M  V30 9 1 9 10
M  V30 10 1 10 11
M  V30 11 1 11 12
M  V30 12 1 12 13
M  V30 13 1 13 14
M  V30 14 1 14 15
M  V30 END BOND
M  V30 END CTAB
M  END
>  <Molecule Name>
(e)-2-tetradecenal

>  <Molecule Name 2>
(e)-2-tetradecenal

>  <Database>
Essential Oil Database

>  <InChI>
InChI=1S/C14H26O/c1-2-3-4-5-6-7-8-9-10-11-12-13-14-15/h12-14H,2-11H2,1H3/b13-12+

>  <InChI-Key>
WHOZNOZYMBRCBL-OUKQBFOZSA-N

>  <Smiles>
CCCCCCCCCCC/C=C/C=O

>  <Molecular Formula>
C14H26O

$$$$
(e)-2-tridecenal
Actelion Java MolfileCreator 2.0

  0  0  0  0  0  0              0 V3000
M  V30 BEGIN CTAB
M  V30 COUNTS 14 13 0 0 0
M  V30 BEGIN ATOM
M  V30 1 O 0.0 0.0 0.0 0
M  V30 2 C -0.0495 1.5857 0.0 0
M  V30 3 C 1.2264 2.3909 0.0 0
M  V30 4 C 2.5024 1.6476 0.0 0
M  V30 5 C 3.7784 2.4529 0.0 0
M  V30 6 C 5.0545 1.7096 0.0 0
M  V30 7 C 6.3305 2.5148 0.0 0
M  V30 8 C 7.6065 1.7715 0.0 0
M  V30 9 C 8.8825 2.5768 0.0 0
M  V30 10 C 10.1585 1.8334 0.0 0
M  V30 11 C 11.4345 2.6387 0.0 0
M  V30 12 C 12.7105 1.8954 0.0 0
M  V30 13 C 13.9866 2.7006 0.0 0
M  V30 14 C 15.2626 1.9573 0.0 0
M  V30 END ATOM
M  V30 BEGIN BOND
M  V30 1 2 1 2
M  V30 2 1 2 3
M  V30 3 2 3 4
M  V30 4 1 4 5
M  V30 5 1 5 6
M  V30 6 1 6 7
M  V30 7 1 7 8
M  V30 8 1 8 9
M  V30 9 1 9 10
M  V30 10 1 10 11
M  V30 11 1 11 12
M  V30 12 1 12 13
M  V30 13 1 13 14
M  V30 END BOND
M  V30 END CTAB
M  END
>  <Molecule Name>
(e)-2-tridecenal

>  <Molecule Name 2>
(e)-2-tridecenal

>  <Database>
Essential Oil Database

>  <InChI>
InChI=1S/C13H24O/c1-2-3-4-5-6-7-8-9-10-11-12-13-14/h11-13H,2-10H2,1H3/b12-11+

>  <InChI-Key>
VMUNAKQXJLHODT-VAWYXSNFSA-N

>  <Smiles>
CCCCCCCCCC/C=C/C=O

>  <Molecular Formula>
C13H24O

$$$$
(e)-2-undecenal
Actelion Java MolfileCreator 2.0

  0  0  0  0  0  0              0 V3000
M  V30 BEGIN CTAB
M  V30 COUNTS 12 11 0 0 0
M  V30 BEGIN ATOM
M  V30 1 O 0.0 0.0 0.0 0
M  V30 2 C -0.0495 1.5843 0.0 0
M  V30 3 C 1.2253 2.3888 0.0 0
M  V30 4 C 2.5002 1.6462 0.0 0
M  V30 5 C 3.7751 2.4507 0.0 0
M  V30 6 C 5.05 1.7081 0.0 0
M  V30 7 C 6.3249 2.5126 0.0 0
M  V30 8 C 7.5998 1.77 0.0 0
M  V30 9 C 8.8747 2.5745 0.0 0
M  V30 10 C 10.1496 1.8318 0.0 0
M  V30 11 C 11.4245 2.6364 0.0 0
M  V30 12 C 12.6995 1.8937 0.0 0
M  V30 END ATOM
M  V30 BEGIN BOND
M  V30 1 2 1 2
M  V30 2 1 2 3
M  V30 3 2 3 4
M  V30 4 1 4 5
M  V30 5 1 5 6
M  V30 6 1 6 7
M  V30 7 1 7 8
M  V30 8 1 8 9
M  V30 9 1 9 10
M  V30 10 1 10 11
M  V30 11 1 11 12
M  V30 END BOND
M  V30 END CTAB
M  END
>  <Molecule Name>
(e)-2-undecenal

>  <Molecule Name 2>
(e)-2-undecenal

>  <Database>
Essential Oil Database

>  <InChI>
InChI=1S/C11H20O/c1-2-3-4-5-6-7-8-9-10-11-12/h9-11H,2-8H2,1H3/b10-9+

>  <InChI-Key>
PANBRUWVURLWGY-MDZDMXLPSA-N

>  <Smiles>
CCCCCCCC/C=C/C=O

>  <Molecular Formula>
C11H20O

$$$$
heptadecanal
Actelion Java MolfileCreator 2.0

  0  0  0  0  0  0              0 V3000
M  V30 BEGIN CTAB
M  V30 COUNTS 18 17 0 0 0
M  V30 BEGIN ATOM
M  V30 1 O 0.0 0.0 0.0 0
M  V30 2 C 1.283 0.8146 0.0 0
M  V30 3 C 2.566 0.0814 0.0 0
M  V30 4 C 3.849 0.896 0.0 0
M  V30 5 C 5.1321 0.1629 0.0 0
M  V30 6 C 6.4151 0.9775 0.0 0
M  V30 7 C 7.6981 0.2443 0.0 0
M  V30 8 C 8.9812 1.059 0.0 0
M  V30 9 C 10.2642 0.3258 0.0 0
M  V30 10 C 11.5472 1.1404 0.0 0
M  V30 11 C 12.8302 0.4073 0.0 0
M  V30 12 C 14.1133 1.2219 0.0 0
M  V30 13 C 15.3963 0.4887 0.0 0
M  V30 14 C 16.6793 1.3033 0.0 0
M  V30 15 C 17.9624 0.5702 0.0 0
M  V30 16 C 19.2454 1.3848 0.0 0
M  V30 17 C 20.5284 0.6516 0.0 0
M  V30 18 C 21.8115 1.4663 0.0 0
M  V30 END ATOM
M  V30 BEGIN BOND
M  V30 1 2 1 2
M  V30 2 1 2 3
M  V30 3 1 3 4
M  V30 4 1 4 5
M  V30 5 1 5 6
M  V30 6 1 6 7
M  V30 7 1 7 8
M  V30 8 1 8 9
M  V30 9 1 9 10
M  V30 10 1 10 11
M  V30 11 1 11 12
M  V30 12 1 12 13
M  V30 13 1 13 14
M  V30 14 1 14 15
M  V30 15 1 15 16
M  V30 16 1 16 17
M  V30 17 1 17 18
M  V30 END BOND
M  V30 END CTAB
M  END
>  <Molecule Name>
heptadecanal

>  <Molecule Name 2>
heptadecanal

>  <Database>
Essential Oil Database

>  <InChI>
InChI=1S/C17H34O/c1-2-3-4-5-6-7-8-9-10-11-12-13-14-15-16-17-18/h17H,2-16H2,1H3

>  <InChI-Key>
PIYDVAYKYBWPPY-UHFFFAOYSA-N

>  <Smiles>
CCCCCCCCCCCCCCCCC=O

>  <Molecular Formula>
C17H34O

$$$$
hexadecanal
Actelion Java MolfileCreator 2.0

  0  0  0  0  0  0              0 V3000
M  V30 BEGIN CTAB
M  V30 COUNTS 17 16 0 0 0
M  V30 BEGIN ATOM
M  V30 1 O 0.0 0.0 0.0 0
M  V30 2 C 1.284 0.8152 0.0 0
M  V30 3 C 2.5681 0.0815 0.0 0
M  V30 4 C 3.8522 0.8968 0.0 0
M  V30 5 C 5.1363 0.163 0.0 0
M  V30 6 C 6.4204 0.9783 0.0 0
M  V30 7 C 7.7045 0.2445 0.0 0
M  V30 8 C 8.9886 1.0598 0.0 0
M  V30 9 C 10.2727 0.3261 0.0 0
M  V30 10 C 11.5568 1.1414 0.0 0
M  V30 11 C 12.8408 0.4076 0.0 0
M  V30 12 C 14.1249 1.2229 0.0 0
M  V30 13 C 15.409 0.4891 0.0 0
M  V30 14 C 16.6931 1.3044 0.0 0
M  V30 15 C 17.9772 0.5707 0.0 0
M  V30 16 C 19.2613 1.386 0.0 0
M  V30 17 C 20.5454 0.6522 0.0 0
M  V30 END ATOM
M  V30 BEGIN BOND
M  V30 1 2 1 2
M  V30 2 1 2 3
M  V30 3 1 3 4
M  V30 4 1 4 5
M  V30 5 1 5 6
M  V30 6 1 6 7
M  V30 7 1 7 8
M  V30 8 1 8 9
M  V30 9 1 9 10
M  V30 10 1 10 11
M  V30 11 1 11 12
M  V30 12 1 12 13
M  V30 13 1 13 14
M  V30 14 1 14 15
M  V30 15 1 15 16
M  V30 16 1 16 17
M  V30 END BOND
M  V30 END CTAB
M  END
>  <Molecule Name>
hexadecanal

>  <Molecule Name 2>
hexadecanal

>  <Database>
Essential Oil Database

>  <InChI>
InChI=1S/C16H32O/c1-2-3-4-5-6-7-8-9-10-11-12-13-14-15-16-17/h16H,2-15H2,1H3

>  <InChI-Key>
NIOYUNMRJMEDGI-UHFFFAOYSA-N

>  <Smiles>
CCCCCCCCCCCCCCCC=O

>  <Molecular Formula>
C16H32O

$$$$
hexanol
Actelion Java MolfileCreator 2.0

  0  0  0  0  0  0              0 V3000
M  V30 BEGIN CTAB
M  V30 COUNTS 7 6 0 0 0
M  V30 BEGIN ATOM
M  V30 1 O 0.0 0.0 0.0 0
M  V30 2 C 1.284 0.8152 0.0 0
M  V30 3 C 2.5681 0.0815 0.0 0
M  V30 4 C 3.8522 0.8968 0.0 0
M  V30 5 C 5.1363 0.163 0.0 0
M  V30 6 C 6.4204 0.9783 0.0 0
M  V30 7 C 7.7045 0.2445 0.0 0
M  V30 END ATOM
M  V30 BEGIN BOND
M  V30 1 1 1 2
M  V30 2 1 2 3
M  V30 3 1 3 4
M  V30 4 1 4 5
M  V30 5 1 5 6
M  V30 6 1 6 7
M  V30 END BOND
M  V30 END CTAB
M  END
>  <Molecule Name>
hexanol

>  <Molecule Name 2>
hexanol

>  <Database>
Essential Oil Database

>  <InChI>
InChI=1S/C6H14O/c1-2-3-4-5-6-7/h7H,2-6H2,1H3

>  <InChI-Key>
ZSIAUFGUXNUGDI-UHFFFAOYSA-N

>  <Smiles>
CCCCCCO

>  <Molecular Formula>
C6H14O

$$$$
pentadecanal
Actelion Java MolfileCreator 2.0

  0  0  0  0  0  0              0 V3000
M  V30 BEGIN CTAB
M  V30 COUNTS 16 15 0 0 0
M  V30 BEGIN ATOM
M  V30 1 O 0.0 0.0 0.0 0
M  V30 2 C 1.2828 0.8145 0.0 0
M  V30 3 C 2.5657 0.0814 0.0 0
M  V30 4 C 3.8486 0.8959 0.0 0
M  V30 5 C 5.1315 0.1629 0.0 0
M  V30 6 C 6.4144 0.9774 0.0 0
M  V30 7 C 7.6973 0.2443 0.0 0
M  V30 8 C 8.9802 1.0588 0.0 0
M  V30 9 C 10.2631 0.3258 0.0 0
M  V30 10 C 11.546 1.1403 0.0 0
M  V30 11 C 12.8288 0.4072 0.0 0
M  V30 12 C 14.1117 1.2217 0.0 0
M  V30 13 C 15.3946 0.4887 0.0 0
M  V30 14 C 16.6775 1.3032 0.0 0
M  V30 15 C 17.9604 0.5701 0.0 0
M  V30 16 C 19.2433 1.3847 0.0 0
M  V30 END ATOM
M  V30 BEGIN BOND
M  V30 1 2 1 2
M  V30 2 1 2 3
M  V30 3 1 3 4
M  V30 4 1 4 5
M  V30 5 1 5 6
M  V30 6 1 6 7
M  V30 7 1 7 8
M  V30 8 1 8 9
M  V30 9 1 9 10
M  V30 10 1 10 11
M  V30 11 1 11 12
M  V30 12 1 12 13
M  V30 13 1 13 14
M  V30 14 1 14 15
M  V30 15 1 15 16
M  V30 END BOND
M  V30 END CTAB
M  END
>  <Molecule Name>
pentadecanal

>  <Molecule Name 2>
pentadecanal

>  <Database>
Essential Oil Database

>  <InChI>
InChI=1S/C15H30O/c1-2-3-4-5-6-7-8-9-10-11-12-13-14-15-16/h15H,2-14H2,1H3

>  <InChI-Key>
XGQJZNCFDLXSIJ-UHFFFAOYSA-N

>  <Smiles>
CCCCCCCCCCCCCCC=O

>  <Molecular Formula>
C15H30O

$$$$
tetradecanal
Actelion Java MolfileCreator 2.0

  0  0  0  0  0  0              0 V3000
M  V30 BEGIN CTAB
M  V30 COUNTS 15 14 0 0 0
M  V30 BEGIN ATOM
M  V30 1 O 0.0 0.0 0.0 0
M  V30 2 C 1.284 0.8152 0.0 0
M  V30 3 C 2.5681 0.0815 0.0 0
M  V30 4 C 3.8522 0.8968 0.0 0
M  V30 5 C 5.1363 0.163 0.0 0
M  V30 6 C 6.4204 0.9783 0.0 0
M  V30 7 C 7.7045 0.2445 0.0 0
M  V30 8 C 8.9886 1.0598 0.0 0
M  V30 9 C 10.2727 0.3261 0.0 0
M  V30 10 C 11.5568 1.1414 0.0 0
M  V30 11 C 12.8408 0.4076 0.0 0
M  V30 12 C 14.1249 1.2229 0.0 0
M  V30 13 C 15.409 0.4891 0.0 0
M  V30 14 C 16.6931 1.3044 0.0 0
M  V30 15 C 17.9772 0.5707 0.0 0
M  V30 END ATOM
M  V30 BEGIN BOND
M  V30 1 2 1 2
M  V30 2 1 2 3
M  V30 3 1 3 4
M  V30 4 1 4 5
M  V30 5 1 5 6
M  V30 6 1 6 7
M  V30 7 1 7 8
M  V30 8 1 8 9
M  V30 9 1 9 10
M  V30 10 1 10 11
M  V30 11 1 11 12
M  V30 12 1 12 13
M  V30 13 1 13 14
M  V30 14 1 14 15
M  V30 END BOND
M  V30 END CTAB
M  END
>  <Molecule Name>
tetradecanal

>  <Molecule Name 2>
tetradecanal

>  <Database>
Essential Oil Database

>  <InChI>
InChI=1S/C14H28O/c1-2-3-4-5-6-7-8-9-10-11-12-13-14-15/h14H,2-13H2,1H3

>  <InChI-Key>
UHUFTBALEZWWIH-UHFFFAOYSA-N

>  <Smiles>
CCCCCCCCCCCCCC=O

>  <Molecular Formula>
C14H28O

$$$$
tridecanal
Actelion Java MolfileCreator 2.0

  0  0  0  0  0  0              0 V3000
M  V30 BEGIN CTAB
M  V30 COUNTS 14 13 0 0 0
M  V30 BEGIN ATOM
M  V30 1 O 0.0 0.0 0.0 0
M  V30 2 C 1.2827 0.8144 0.0 0
M  V30 3 C 2.5654 0.0814 0.0 0
M  V30 4 C 3.8481 0.8958 0.0 0
M  V30 5 C 5.1308 0.1628 0.0 0
M  V30 6 C 6.4135 0.9772 0.0 0
M  V30 7 C 7.6962 0.2443 0.0 0
M  V30 8 C 8.9789 1.0587 0.0 0
M  V30 9 C 10.2616 0.3257 0.0 0
M  V30 10 C 11.5443 1.1401 0.0 0
M  V30 11 C 12.827 0.4072 0.0 0
M  V30 12 C 14.1097 1.2216 0.0 0
M  V30 13 C 15.3924 0.4886 0.0 0
M  V30 14 C 16.6751 1.303 0.0 0
M  V30 END ATOM
M  V30 BEGIN BOND
M  V30 1 2 1 2
M  V30 2 1 2 3
M  V30 3 1 3 4
M  V30 4 1 4 5
M  V30 5 1 5 6
M  V30 6 1 6 7
M  V30 7 1 7 8
M  V30 8 1 8 9
M  V30 9 1 9 10
M  V30 10 1 10 11
M  V30 11 1 11 12
M  V30 12 1 12 13
M  V30 13 1 13 14
M  V30 END BOND
M  V30 END CTAB
M  END
>  <Molecule Name>
tridecanal

>  <Molecule Name 2>
tridecanal

>  <Database>
Essential Oil Database

>  <InChI>
InChI=1S/C13H26O/c1-2-3-4-5-6-7-8-9-10-11-12-13-14/h13H,2-12H2,1H3

>  <InChI-Key>
BGEHHAVMRVXCGR-UHFFFAOYSA-N

>  <Smiles>
CCCCCCCCCCCCC=O

>  <Molecular Formula>
C13H26O

$$$$
1-allyl-2,4-dimethoxybenzene
Actelion Java MolfileCreator 2.0

  0  0  0  0  0  0              0 V3000
M  V30 BEGIN CTAB
M  V30 COUNTS 13 13 0 0 0
M  V30 BEGIN ATOM
M  V30 1 O 0.0 0.0 0.0 0
M  V30 2 C -1.3395 -0.712 0.0 0
M  V30 3 C 1.243 -0.712 0.0 0
M  V30 4 C -2.679 0.0603 0.0 0
M  V30 5 C -1.3878 -2.1601 0.0 0
M  V30 6 C -4.0186 -0.6516 0.0 0
M  V30 7 C -2.7273 1.605 0.0 0
M  V30 8 C -2.7273 -2.8721 0.0 0
M  V30 9 C -4.0669 -2.0998 0.0 0
M  V30 10 C -1.4843 2.3773 0.0 0
M  V30 11 O -2.7756 -4.3203 0.0 0
M  V30 12 C -1.5326 3.922 0.0 0
M  V30 13 C -4.1151 -5.0444 0.0 0
M  V30 END ATOM
M  V30 BEGIN BOND
M  V30 1 1 1 2
M  V30 2 1 1 3
M  V30 3 2 2 4
M  V30 4 1 2 5
M  V30 5 1 4 6
M  V30 6 1 4 7
M  V30 7 2 5 8
M  V30 8 2 6 9
M  V30 9 1 7 10
M  V30 10 1 8 11
M  V30 11 2 10 12
M  V30 12 1 11 13
M  V30 13 1 8 9
M  V30 END BOND
M  V30 END CTAB
M  END
>  <Molecule Name>
1-allyl-2,4-dimethoxybenzene

>  <Molecule Name 2>
1-allyl-2,4-dimethoxybenzene

>  <Database>
Essential Oil Database

>  <InChI>
InChI=1S/C11H14O2/c1-4-5-9-6-7-10(12-2)8-11(9)13-3/h4,6-8H,1,5H2,2-3H3

>  <InChI-Key>
HZLYHZSHPUFYAR-UHFFFAOYSA-N

>  <Smiles>
COc1cc(OC)c(CC=C)cc1

>  <Molecular Formula>
C11H14O2

$$$$
undecane
Actelion Java MolfileCreator 2.0

  0  0  0  0  0  0              0 V3000
M  V30 BEGIN CTAB
M  V30 COUNTS 11 10 0 0 0
M  V30 BEGIN ATOM
M  V30 1 C 0.0 0.0 0.0 0
M  V30 2 C -1.3441 0.777 0.0 0
M  V30 3 C 1.2601 0.777 0.0 0
M  V30 4 C -2.6882 0.084 0.0 0
M  V30 5 C 2.5202 0.084 0.0 0
M  V30 6 C -4.0323 0.861 0.0 0
M  V30 7 C 3.7803 0.861 0.0 0
M  V30 8 C -5.3765 0.168 0.0 0
M  V30 9 C 5.0404 0.168 0.0 0
M  V30 10 C -6.7206 0.945 0.0 0
M  V30 11 C 6.3006 0.945 0.0 0
M  V30 END ATOM
M  V30 BEGIN BOND
M  V30 1 1 1 2
M  V30 2 1 1 3
M  V30 3 1 2 4
M  V30 4 1 3 5
M  V30 5 1 4 6
M  V30 6 1 5 7
M  V30 7 1 6 8
M  V30 8 1 7 9
M  V30 9 1 8 10
M  V30 10 1 9 11
M  V30 END BOND
M  V30 END CTAB
M  END
>  <Molecule Name>
undecane

>  <Molecule Name 2>
undecane

>  <Database>
Essential Oil Database

>  <InChI>
InChI=1S/C11H24/c1-3-5-7-9-11-10-8-6-4-2/h3-11H2,1-2H3

>  <InChI-Key>
RSJKGSCJYJTIGS-UHFFFAOYSA-N

>  <Smiles>
CCCCCCCCCCC

>  <Molecular Formula>
C11H24

$$$$
1-pentyl-1,3-cyclohexadiene
Actelion Java MolfileCreator 2.0

  0  0  0  0  0  0              0 V3000
M  V30 BEGIN CTAB
M  V30 COUNTS 11 11 0 0 0
M  V30 BEGIN ATOM
M  V30 1 C 0.0 0.0 0.0 0
M  V30 2 C -0.0461 -1.4529 0.0 0
M  V30 3 C -1.3491 0.8187 0.0 0
M  V30 4 C 1.2569 0.8187 0.0 0
M  V30 5 C -1.3953 -2.1564 0.0 0
M  V30 6 C -2.6983 0.1268 0.0 0
M  V30 7 C 2.5138 0.1268 0.0 0
M  V30 8 C -2.7445 -1.3376 0.0 0
M  V30 9 C 3.7708 0.9455 0.0 0
M  V30 10 C 5.0277 0.2191 0.0 0
M  V30 11 C 6.2847 1.0378 0.0 0
M  V30 END ATOM
M  V30 BEGIN BOND
M  V30 1 2 1 2
M  V30 2 1 1 3
M  V30 3 1 1 4
M  V30 4 1 2 5
M  V30 5 1 3 6
M  V30 6 1 4 7
M  V30 7 2 5 8
M  V30 8 1 7 9
M  V30 9 1 9 10
M  V30 10 1 10 11
M  V30 11 1 6 8
M  V30 END BOND
M  V30 END CTAB
M  END
>  <Molecule Name>
1-pentyl-1,3-cyclohexadiene

>  <Molecule Name 2>
1-pentyl-1,3-cyclohexadiene

>  <Database>
Essential Oil Database

>  <InChI>
InChI=1S/C11H18/c1-2-3-5-8-11-9-6-4-7-10-11/h4,6,9H,2-3,5,7-8,10H2,1H3

>  <InChI-Key>
TWGRYUWSJLSKAL-UHFFFAOYSA-N

>  <Smiles>
CCCCCC1=CC=CCC1

>  <Molecular Formula>
C11H18

$$$$
beta-gurjunene
Actelion Java MolfileCreator 2.0

  0  0  0  0  0  0              0 V3000
M  V30 BEGIN CTAB
M  V30 COUNTS 15 17 0 0 0
M  V30 BEGIN ATOM
M  V30 1 C 0.0 0.0 0.0 0
M  V30 2 C 0.339 -1.4045 0.0 0
M  V30 3 C 0.896 1.1987 0.0 0 CFG=2
M  V30 4 C -1.4408 0.6054 0.0 0
M  V30 5 C 0.0484 2.5064 0.0 0 CFG=2
M  V30 6 C 2.349 1.0897 0.0 0 CFG=2
M  V30 7 C -1.3924 2.1552 0.0 0
M  V30 8 C 0.4964 3.9715 0.0 0 CFG=1
M  V30 9 C 3.7535 0.7507 0.0 0
M  V30 10 C 3.3419 2.2037 0.0 0 CFG=2
M  V30 11 C 1.8646 4.5406 0.0 0
M  V30 12 C -0.6175 5.0612 0.0 0
M  V30 13 C 3.9836 -0.678 0.0 0
M  V30 14 C 5.1823 0.5448 0.0 0
M  V30 15 C 3.1118 3.7414 0.0 0
M  V30 END ATOM
M  V30 BEGIN BOND
M  V30 1 2 1 2
M  V30 2 1 3 1 CFG=3
M  V30 3 1 1 4
M  V30 4 1 3 5
M  V30 5 1 3 6
M  V30 6 1 4 7
M  V30 7 1 5 8
M  V30 8 1 6 9 CFG=1
M  V30 9 1 6 10
M  V30 10 1 8 11
M  V30 11 1 8 12 CFG=3
M  V30 12 1 9 13
M  V30 13 1 9 14
M  V30 14 1 10 15 CFG=1
M  V30 15 1 5 7 CFG=3
M  V30 16 1 9 10
M  V30 17 1 11 15
M  V30 END BOND
M  V30 BEGIN COLLECTION
M  V30 MDLV30/STEABS ATOMS=(5 3 5 6 8 10)
M  V30 END COLLECTION
M  V30 END CTAB
M  END
>  <Molecule Name>
beta-gurjunene

>  <Molecule Name 2>
beta-gurjunene

>  <Database>
Essential Oil Database

>  <InChI>
InChI=1S/C15H24/c1-9-6-8-12-14(15(12,3)4)13-10(2)5-7-11(9)13/h9,11-14H,2,5-8H2,1,3-4H3/t9-,11-,12-,13-,14-/m1/s1

>  <InChI-Key>
IRCZVRWQUNZGSH-DKTYCGPESA-N

>  <Smiles>
C[C@H](CC[C@H]1C(C)(C)[C@H]11)[C@@H](CC2)[C@H]1C2=C

>  <Molecular Formula>
C15H24

$$$$
(e)-3-butylidene phthalide
Actelion Java MolfileCreator 2.0

  0  0  0  0  0  0              0 V3000
M  V30 BEGIN CTAB
M  V30 COUNTS 14 15 0 0 0
M  V30 BEGIN ATOM
M  V30 1 O 0.0 0.0 0.0 0
M  V30 2 C 0.4235 1.4762 0.0 0
M  V30 3 O -0.4961 2.7347 0.0 0
M  V30 4 C 1.803 1.9966 0.0 0
M  V30 5 C 0.3267 3.9932 0.0 0
M  V30 6 C 1.7546 3.5455 0.0 0
M  V30 7 C 3.0493 1.2705 0.0 0
M  V30 8 C -0.1936 5.4695 0.0 0
M  V30 9 C 3.0009 4.3441 0.0 0
M  V30 10 C 4.2957 2.0571 0.0 0
M  V30 11 C 0.7502 6.6191 0.0 0
M  V30 12 C 4.2473 3.6181 0.0 0
M  V30 13 C 2.166 6.3528 0.0 0
M  V30 14 C 3.1098 7.5024 0.0 0
M  V30 END ATOM
M  V30 BEGIN BOND
M  V30 1 2 1 2
M  V30 2 1 2 3
M  V30 3 1 2 4
M  V30 4 1 3 5
M  V30 5 2 4 6
M  V30 6 1 4 7
M  V30 7 2 5 8
M  V30 8 1 6 9
M  V30 9 2 7 10
M  V30 10 1 8 11
M  V30 11 2 9 12
M  V30 12 1 11 13
M  V30 13 1 13 14
M  V30 14 1 5 6
M  V30 15 1 10 12
M  V30 END BOND
M  V30 END CTAB
M  END
>  <Molecule Name>
(e)-3-butylidene phthalide

>  <Molecule Name 2>
(e)-3-butylidene phthalide

>  <Database>
Essential Oil Database

>  <InChI>
InChI=1S/C12H12O2/c1-2-3-8-11-9-6-4-5-7-10(9)12(13)14-11/h4-8H,2-3H2,1H3/b11-8+

>  <InChI-Key>
WMBOCUXXNSOQHM-DHZHZOJOSA-N

>  <Smiles>
CCC/C=C(\c1c2cccc1)/OC2=O

>  <Molecular Formula>
C12H12O2

$$$$
(e)-beta-farnesene
Actelion Java MolfileCreator 2.0

  0  0  0  0  0  0              0 V3000
M  V30 BEGIN CTAB
M  V30 COUNTS 15 14 0 0 0
M  V30 BEGIN ATOM
M  V30 1 C 0.0 0.0 0.0 0
M  V30 2 C 1.4448 0.0481 0.0 0
M  V30 3 C -0.7705 -1.2401 0.0 0
M  V30 4 C -0.7705 1.3364 0.0 0
M  V30 5 C 2.1672 1.3846 0.0 0
M  V30 6 C -2.3117 -1.1919 0.0 0
M  V30 7 C 3.612 1.4327 0.0 0
M  V30 8 C -3.0943 -2.4321 0.0 0
M  V30 9 C 4.3224 2.7692 0.0 0
M  V30 10 C -4.6354 -2.3839 0.0 0
M  V30 11 C 5.7672 2.8174 0.0 0
M  V30 12 C 3.5398 4.1056 0.0 0
M  V30 13 C -5.418 -3.624 0.0 0
M  V30 14 C -5.418 -1.0474 0.0 0
M  V30 15 C 6.4776 4.1538 0.0 0
M  V30 END ATOM
M  V30 BEGIN BOND
M  V30 1 2 1 2
M  V30 2 1 1 3
M  V30 3 1 1 4
M  V30 4 1 2 5
M  V30 5 1 3 6
M  V30 6 1 5 7
M  V30 7 1 6 8
M  V30 8 1 7 9
M  V30 9 2 8 10
M  V30 10 2 9 11
M  V30 11 1 9 12
M  V30 12 1 10 13
M  V30 13 1 10 14
M  V30 14 1 11 15
M  V30 END BOND
M  V30 END CTAB
M  END
>  <Molecule Name>
(e)-beta-farnesene

>  <Molecule Name 2>
(e)-beta-farnesene

>  <Database>
Essential Oil Database

>  <InChI>
InChI=1S/C15H26/c1-6-14(4)10-8-12-15(5)11-7-9-13(2)3/h6,9,12H,7-8,10-11H2,1-5H3/b14-6+,15-12+

>  <InChI-Key>
JXBSHSBNOVLGHF-BUJBXKITSA-N

>  <Smiles>
C/C=C(\C)/CC/C=C(\C)/CCC=C(C)C

>  <Molecular Formula>
C15H26

$$$$
furfural
Actelion Java MolfileCreator 2.0

  0  0  0  0  0  0              0 V3000
M  V30 BEGIN CTAB
M  V30 COUNTS 7 7 0 0 0
M  V30 BEGIN ATOM
M  V30 1 O 0.0 0.0 0.0 0
M  V30 2 C 1.2779 -0.7034 0.0 0
M  V30 3 C 1.231 -2.1807 0.0 0
M  V30 4 O -0.0586 -3.0484 0.0 0
M  V30 5 C 2.427 -3.0484 0.0 0
M  V30 6 C 0.3517 -4.4553 0.0 0
M  V30 7 C 1.9228 -4.4553 0.0 0
M  V30 END ATOM
M  V30 BEGIN BOND
M  V30 1 2 1 2
M  V30 2 1 2 3
M  V30 3 1 3 4
M  V30 4 2 3 5
M  V30 5 1 4 6
M  V30 6 1 5 7
M  V30 7 2 6 7
M  V30 END BOND
M  V30 END CTAB
M  END
>  <Molecule Name>
furfural

>  <Molecule Name 2>
furfural

>  <Database>
Essential Oil Database

>  <InChI>
InChI=1S/C5H4O2/c6-4-5-2-1-3-7-5/h1-4H

>  <InChI-Key>
HYBBIBNJHNGZAN-UHFFFAOYSA-N

>  <Smiles>
O=Cc1ccc[o]1

>  <Molecular Formula>
C5H4O2

$$$$
pentyl benzene
Actelion Java MolfileCreator 2.0

  0  0  0  0  0  0              0 V3000
M  V30 BEGIN CTAB
M  V30 COUNTS 11 11 0 0 0
M  V30 BEGIN ATOM
M  V30 1 C 0.0 0.0 0.0 0
M  V30 2 C -0.0461 -1.4529 0.0 0
M  V30 3 C -1.3491 0.8187 0.0 0
M  V30 4 C 1.2569 0.8187 0.0 0
M  V30 5 C -1.3953 -2.1564 0.0 0
M  V30 6 C -2.6983 0.1268 0.0 0
M  V30 7 C 2.5138 0.1268 0.0 0
M  V30 8 C -2.7445 -1.3376 0.0 0
M  V30 9 C 3.7708 0.9455 0.0 0
M  V30 10 C 5.0277 0.2191 0.0 0
M  V30 11 C 6.2847 1.0378 0.0 0
M  V30 END ATOM
M  V30 BEGIN BOND
M  V30 1 2 1 2
M  V30 2 1 1 3
M  V30 3 1 1 4
M  V30 4 1 2 5
M  V30 5 2 3 6
M  V30 6 1 4 7
M  V30 7 2 5 8
M  V30 8 1 7 9
M  V30 9 1 9 10
M  V30 10 1 10 11
M  V30 11 1 6 8
M  V30 END BOND
M  V30 END CTAB
M  END
>  <Molecule Name>
pentyl benzene

>  <Molecule Name 2>
pentyl benzene

>  <Database>
Essential Oil Database

>  <InChI>
InChI=1S/C11H16/c1-2-3-5-8-11-9-6-4-7-10-11/h4,6-7,9-10H,2-3,5,8H2,1H3

>  <InChI-Key>
PWATWSYOIIXYMA-UHFFFAOYSA-N

>  <Smiles>
CCCCCc1ccccc1

>  <Molecular Formula>
C11H16

$$$$
zingiberene
Actelion Java MolfileCreator 2.0

  0  0  0  0  0  0              0 V3000
M  V30 BEGIN CTAB
M  V30 COUNTS 15 15 0 0 0
M  V30 BEGIN ATOM
M  V30 1 C 0.0 0.0 0.0 0
M  V30 2 C -1.323 0.7628 0.0 0
M  V30 3 C 1.2277 0.7628 0.0 0
M  V30 4 C -0.0476 -1.4303 0.0 0
M  V30 5 C -1.3707 2.2886 0.0 0
M  V30 6 C 1.18 2.2886 0.0 0
M  V30 7 C -0.143 3.0514 0.0 0 CFG=2
M  V30 8 C -0.1907 4.5772 0.0 0 CFG=2
M  V30 9 C -1.5138 5.34 0.0 0
M  V30 10 C 1.037 5.34 0.0 0
M  V30 11 C -1.5614 6.8658 0.0 0
M  V30 12 C -2.8845 7.6405 0.0 0
M  V30 13 C -2.9322 9.1663 0.0 0
M  V30 14 C -4.2553 9.9411 0.0 0
M  V30 15 C -1.7045 9.9411 0.0 0
M  V30 END ATOM
M  V30 BEGIN BOND
M  V30 1 1 1 2
M  V30 2 2 1 3
M  V30 3 1 1 4
M  V30 4 2 2 5
M  V30 5 1 3 6
M  V30 6 1 7 5 CFG=1
M  V30 7 1 7 8
M  V30 8 1 8 9
M  V30 9 1 8 10 CFG=3
M  V30 10 1 9 11
M  V30 11 1 11 12
M  V30 12 2 12 13
M  V30 13 1 13 14
M  V30 14 1 13 15
M  V30 15 1 6 7
M  V30 END BOND
M  V30 BEGIN COLLECTION
M  V30 MDLV30/STEABS ATOMS=(2 7 8)
M  V30 END COLLECTION
M  V30 END CTAB
M  END
>  <Molecule Name>
zingiberene

>  <Molecule Name 2>
zingiberene

>  <Database>
Essential Oil Database

>  <InChI>
InChI=1S/C15H24/c1-12(2)6-5-7-14(4)15-10-8-13(3)9-11-15/h6,8-10,14-15H,5,7,11H2,1-4H3/t14-,15+/m0/s1

>  <InChI-Key>
KKOXKGNSUHTUBV-LSDHHAIUSA-N

>  <Smiles>
C[C@@H](CCC=C(C)C)[C@@H]1C=CC(C)=CC1

>  <Molecular Formula>
C15H24

$$$$
bergapten
Actelion Java MolfileCreator 2.0

  0  0  0  0  0  0              0 V3000
M  V30 BEGIN CTAB
M  V30 COUNTS 16 18 0 0 0
M  V30 BEGIN ATOM
M  V30 1 O 0.0 0.0 0.0 0
M  V30 2 C 1.2939 -0.7003 0.0 0
M  V30 3 O 2.5879 0.1305 0.0 0
M  V30 4 C 1.2464 -2.1961 0.0 0
M  V30 5 C 3.8818 -0.5698 0.0 0
M  V30 6 C 2.5404 -2.8965 0.0 0
M  V30 7 C 3.8343 -2.0655 0.0 0
M  V30 8 C 5.1758 0.2611 0.0 0
M  V30 9 C 5.1283 -2.7659 0.0 0
M  V30 10 C 6.4697 -0.4392 0.0 0
M  V30 11 O 5.0808 -4.2617 0.0 0
M  V30 12 C 6.4222 -1.9349 0.0 0
M  V30 13 O 7.8942 0.0712 0.0 0
M  V30 14 C 6.3747 -4.9977 0.0 0
M  V30 15 C 7.8468 -2.3504 0.0 0
M  V30 16 C 8.7727 -1.1396 0.0 0
M  V30 END ATOM
M  V30 BEGIN BOND
M  V30 1 2 1 2
M  V30 2 1 2 3
M  V30 3 1 2 4
M  V30 4 1 3 5
M  V30 5 2 4 6
M  V30 6 2 5 7
M  V30 7 1 5 8
M  V30 8 1 7 9
M  V30 9 2 8 10
M  V30 10 1 9 11
M  V30 11 2 9 12
M  V30 12 1 10 13
M  V30 13 1 11 14
M  V30 14 1 12 15
M  V30 15 1 13 16
M  V30 16 1 6 7
M  V30 17 1 10 12
M  V30 18 2 15 16
M  V30 END BOND
M  V30 END CTAB
M  END
>  <Molecule Name>
bergapten

>  <Molecule Name 2>
bergapten

>  <Database>
Essential Oil Database

>  <InChI>
InChI=1S/C12H8O4/c1-14-12-7-2-3-11(13)16-10(7)6-9-8(12)4-5-15-9/h2-6H,1H3

>  <InChI-Key>
BGEBZHIAGXMEMV-UHFFFAOYSA-N

>  <Smiles>
COc1c(cc[o]2)c2cc(O2)c1C=CC2=O

>  <Molecular Formula>
C12H8O4

$$$$
2,3,4-trimethylbenzaldehyde
Actelion Java MolfileCreator 2.0

  0  0  0  0  0  0              0 V3000
M  V30 BEGIN CTAB
M  V30 COUNTS 11 11 0 0 0
M  V30 BEGIN ATOM
M  V30 1 O 0.0 0.0 0.0 0
M  V30 2 C 1.2923 -0.6995 0.0 0
M  V30 3 C 1.2449 -2.1934 0.0 0
M  V30 4 C 2.5372 -2.8929 0.0 0
M  V30 5 C -0.1422 -2.8929 0.0 0
M  V30 6 C 2.4898 -4.3869 0.0 0
M  V30 7 C 3.8296 -2.063 0.0 0
M  V30 8 C -0.1897 -4.3869 0.0 0
M  V30 9 C 1.1026 -5.0864 0.0 0
M  V30 10 C 3.7822 -5.0864 0.0 0
M  V30 11 C 1.0552 -6.5803 0.0 0
M  V30 END ATOM
M  V30 BEGIN BOND
M  V30 1 2 1 2
M  V30 2 1 2 3
M  V30 3 2 3 4
M  V30 4 1 3 5
M  V30 5 1 4 6
M  V30 6 1 4 7
M  V30 7 2 5 8
M  V30 8 2 6 9
M  V30 9 1 6 10
M  V30 10 1 9 11
M  V30 11 1 8 9
M  V30 END BOND
M  V30 END CTAB
M  END
>  <Molecule Name>
2,3,4-trimethylbenzaldehyde

>  <Molecule Name 2>
2,3,4-trimethylbenzaldehyde

>  <Database>
Essential Oil Database

>  <InChI>
InChI=1S/C10H12O/c1-7-4-5-10(6-11)9(3)8(7)2/h4-6H,1-3H3

>  <InChI-Key>
RPZOPDOUASNMNP-UHFFFAOYSA-N

>  <Smiles>
Cc1c(C)c(C)c(C=O)cc1

>  <Molecular Formula>
C10H12O

$$$$
3-methylbenzaldehyde
Actelion Java MolfileCreator 2.0

  0  0  0  0  0  0              0 V3000
M  V30 BEGIN CTAB
M  V30 COUNTS 9 9 0 0 0
M  V30 BEGIN ATOM
M  V30 1 O 0.0 0.0 0.0 0
M  V30 2 C 1.2952 -0.7011 0.0 0
M  V30 3 C 1.2477 -2.1984 0.0 0
M  V30 4 C 2.543 -2.8995 0.0 0
M  V30 5 C -0.1426 -2.8995 0.0 0
M  V30 6 C 2.4955 -4.3968 0.0 0
M  V30 7 C -0.1901 -4.3968 0.0 0
M  V30 8 C 1.1051 -5.098 0.0 0
M  V30 9 C 3.7908 -5.098 0.0 0
M  V30 END ATOM
M  V30 BEGIN BOND
M  V30 1 2 1 2
M  V30 2 1 2 3
M  V30 3 2 3 4
M  V30 4 1 3 5
M  V30 5 1 4 6
M  V30 6 2 5 7
M  V30 7 2 6 8
M  V30 8 1 6 9
M  V30 9 1 7 8
M  V30 END BOND
M  V30 END CTAB
M  END
>  <Molecule Name>
3-methylbenzaldehyde

>  <Molecule Name 2>
3-methylbenzaldehyde

>  <Database>
Essential Oil Database

>  <InChI>
InChI=1S/C8H8O/c1-7-3-2-4-8(5-7)6-9/h2-6H,1H3

>  <InChI-Key>
OVWYEQOVUDKZNU-UHFFFAOYSA-N

>  <Smiles>
Cc1cccc(C=O)c1

>  <Molecular Formula>
C8H8O

$$$$
osthole
Actelion Java MolfileCreator 2.0

  0  0  0  0  0  0              0 V3000
M  V30 BEGIN CTAB
M  V30 COUNTS 18 19 0 0 0
M  V30 BEGIN ATOM
M  V30 1 O 0.0 0.0 0.0 0
M  V30 2 C -1.328 0.7776 0.0 0
M  V30 3 O -2.656 0.0598 0.0 0
M  V30 4 C -1.3758 2.309 0.0 0
M  V30 5 C -3.984 0.8494 0.0 0
M  V30 6 C -2.7038 3.0867 0.0 0
M  V30 7 C -4.0319 2.3808 0.0 0
M  V30 8 C -5.312 0.1316 0.0 0
M  V30 9 C -5.3599 3.1585 0.0 0
M  V30 10 C -6.6401 0.9212 0.0 0
M  V30 11 C -5.3599 -1.304 0.0 0
M  V30 12 C -6.6879 2.4526 0.0 0
M  V30 13 O -7.9681 0.2033 0.0 0
M  V30 14 C -4.1276 -2.0219 0.0 0
M  V30 15 C -8.0159 -1.2323 0.0 0
M  V30 16 C -4.1754 -3.4576 0.0 0
M  V30 17 C -2.9431 -4.1635 0.0 0
M  V30 18 C -5.5035 -4.1635 0.0 0
M  V30 END ATOM
M  V30 BEGIN BOND
M  V30 1 2 1 2
M  V30 2 1 2 3
M  V30 3 1 2 4
M  V30 4 1 3 5
M  V30 5 2 4 6
M  V30 6 2 5 7
M  V30 7 1 5 8
M  V30 8 1 7 9
M  V30 9 2 8 10
M  V30 10 1 8 11
M  V30 11 2 9 12
M  V30 12 1 10 13
M  V30 13 1 11 14
M  V30 14 1 13 15
M  V30 15 2 14 16
M  V30 16 1 16 17
M  V30 17 1 16 18
M  V30 18 1 6 7
M  V30 19 1 10 12
M  V30 END BOND
M  V30 END CTAB
M  END
>  <Molecule Name>
osthole

>  <Molecule Name 2>
osthole

>  <Database>
Essential Oil Database

>  <InChI>
InChI=1S/C15H16O3/c1-10(2)4-7-12-13(17-3)8-5-11-6-9-14(16)18-15(11)12/h4-6,8-9H,7H2,1-3H3

>  <InChI-Key>
MBRLOUHOWLUMFF-UHFFFAOYSA-N

>  <Smiles>
CC(C)=CCc(c(O1)c(cc2)C=CC1=O)c2OC

>  <Molecular Formula>
C15H16O3

$$$$
dill ether
Actelion Java MolfileCreator 2.0

  0  0  0  0  0  0              0 V3000
M  V30 BEGIN CTAB
M  V30 COUNTS 11 12 0 0 0
M  V30 BEGIN ATOM
M  V30 1 O 0.0 0.0 0.0 0
M  V30 2 C 1.41 -0.4112 0.0 0 CFG=1
M  V30 3 C -0.9635 -1.1985 0.0 0
M  V30 4 C 2.6908 0.423 0.0 0
M  V30 5 C 1.363 -1.8918 0.0 0 CFG=2
M  V30 6 C -0.094 -2.3971 0.0 0 CFG=2
M  V30 7 C 3.9717 -0.282 0.0 0
M  V30 8 C 2.6438 -2.5968 0.0 0
M  V30 9 C -0.5992 -3.8072 0.0 0
M  V30 10 C 3.9247 -1.7625 0.0 0
M  V30 11 C 5.2525 0.5522 0.0 0
M  V30 END ATOM
M  V30 BEGIN BOND
M  V30 1 1 2 1 CFG=1
M  V30 2 1 1 3
M  V30 3 1 2 4
M  V30 4 1 2 5
M  V30 5 1 3 6
M  V30 6 2 4 7
M  V30 7 1 5 8 CFG=1
M  V30 8 1 6 9 CFG=3
M  V30 9 1 7 10
M  V30 10 1 7 11
M  V30 11 1 5 6
M  V30 12 1 8 10
M  V30 END BOND
M  V30 BEGIN COLLECTION
M  V30 MDLV30/STEABS ATOMS=(3 2 5 6)
M  V30 END COLLECTION
M  V30 END CTAB
M  END
>  <Molecule Name>
dill ether

>  <Molecule Name 2>
dill ether

>  <Database>
Essential Oil Database

>  <InChI>
InChI=1S/C10H16O/c1-7-3-4-9-8(2)6-11-10(9)5-7/h5,8-10H,3-4,6H2,1-2H3/t8-,9+,10+/m1/s1

>  <InChI-Key>
KBPPPUZMFQKLNP-UTLUCORTSA-N

>  <Smiles>
C[C@H]1[C@H](CCC(C)=C2)[C@H]2OC1

>  <Molecular Formula>
C10H16O

$$$$
docosene
Actelion Java MolfileCreator 2.0

  0  0  0  0  0  0              0 V3000
M  V30 BEGIN CTAB
M  V30 COUNTS 22 21 0 0 0
M  V30 BEGIN ATOM
M  V30 1 C 0.0 0.0 0.0 0
M  V30 2 C -1.3792 -0.7111 0.0 0
M  V30 3 C 1.293 -0.7111 0.0 0
M  V30 4 C 2.586 0.0862 0.0 0
M  V30 5 C 3.879 -0.6249 0.0 0
M  V30 6 C 5.1721 0.1724 0.0 0
M  V30 7 C 6.4651 -0.5387 0.0 0
M  V30 8 C 7.7581 0.2586 0.0 0
M  V30 9 C 9.0512 -0.4525 0.0 0
M  V30 10 C 10.3442 0.3448 0.0 0
M  V30 11 C 11.6372 -0.3663 0.0 0
M  V30 12 C 12.9303 0.431 0.0 0
M  V30 13 C 14.2233 -0.2801 0.0 0
M  V30 14 C 15.5163 0.5172 0.0 0
M  V30 15 C 16.8094 -0.1939 0.0 0
M  V30 16 C 18.1024 0.6034 0.0 0
M  V30 17 C 19.3954 -0.1077 0.0 0
M  V30 18 C 20.6885 0.6896 0.0 0
M  V30 19 C 21.9815 -0.0215 0.0 0
M  V30 20 C 23.2745 0.7758 0.0 0
M  V30 21 C 24.5676 0.0646 0.0 0
M  V30 22 C 25.8606 0.862 0.0 0
M  V30 END ATOM
M  V30 BEGIN BOND
M  V30 1 2 1 2
M  V30 2 1 1 3
M  V30 3 1 3 4
M  V30 4 1 4 5
M  V30 5 1 5 6
M  V30 6 1 6 7
M  V30 7 1 7 8
M  V30 8 1 8 9
M  V30 9 1 9 10
M  V30 10 1 10 11
M  V30 11 1 11 12
M  V30 12 1 12 13
M  V30 13 1 13 14
M  V30 14 1 14 15
M  V30 15 1 15 16
M  V30 16 1 16 17
M  V30 17 1 17 18
M  V30 18 1 18 19
M  V30 19 1 19 20
M  V30 20 1 20 21
M  V30 21 1 21 22
M  V30 END BOND
M  V30 END CTAB
M  END
>  <Molecule Name>
docosene

>  <Molecule Name 2>
docosene

>  <Database>
Essential Oil Database

>  <InChI>
InChI=1S/C22H44/c1-3-5-7-9-11-13-15-17-19-21-22-20-18-16-14-12-10-8-6-4-2/h3H,1,4-22H2,2H3

>  <InChI-Key>
SPURMHFLEKVAAS-UHFFFAOYSA-N

>  <Smiles>
CCCCCCCCCCCCCCCCCCCCC=C

>  <Molecular Formula>
C22H44

$$$$
octane
Actelion Java MolfileCreator 2.0

  0  0  0  0  0  0              0 V3000
M  V30 BEGIN CTAB
M  V30 COUNTS 8 7 0 0 0
M  V30 BEGIN ATOM
M  V30 1 C 0.0 0.0 0.0 0
M  V30 2 C 1.2704 -0.6987 0.0 0
M  V30 3 C -1.3551 -0.6987 0.0 0
M  V30 4 C 2.5409 0.0846 0.0 0
M  V30 5 C -2.7103 0.0846 0.0 0
M  V30 6 C 3.8114 -0.614 0.0 0
M  V30 7 C -4.0655 -0.614 0.0 0
M  V30 8 C 5.0819 0.1693 0.0 0
M  V30 END ATOM
M  V30 BEGIN BOND
M  V30 1 1 1 2
M  V30 2 1 1 3
M  V30 3 1 2 4
M  V30 4 1 3 5
M  V30 5 1 4 6
M  V30 6 1 5 7
M  V30 7 1 6 8
M  V30 END BOND
M  V30 END CTAB
M  END
>  <Molecule Name>
octane

>  <Molecule Name 2>
octane

>  <Database>
Essential Oil Database

>  <InChI>
InChI=1S/C8H18/c1-3-5-7-8-6-4-2/h3-8H2,1-2H3

>  <InChI-Key>
TVMXDCGIABBOFY-UHFFFAOYSA-N

>  <Smiles>
CCCCCCCC

>  <Molecular Formula>
C8H18

$$$$
p-menth-1-en-9-ol
Actelion Java MolfileCreator 2.0

  0  0  0  0  0  0              0 V3000
M  V30 BEGIN CTAB
M  V30 COUNTS 11 11 0 0 0
M  V30 BEGIN ATOM
M  V30 1 O 0.0 0.0 0.0 0
M  V30 2 C -0.0477 1.5291 0.0 0
M  V30 3 C 1.1827 2.3057 0.0 0
M  V30 4 C 1.1349 3.8349 0.0 0
M  V30 5 C 2.4132 1.5889 0.0 0
M  V30 6 C -0.1911 4.5995 0.0 0
M  V30 7 C 2.3654 4.5995 0.0 0
M  V30 8 C -0.2389 6.1286 0.0 0
M  V30 9 C 2.3176 6.1286 0.0 0
M  V30 10 C 0.9915 6.9052 0.0 0
M  V30 11 C 0.9437 8.4344 0.0 0
M  V30 END ATOM
M  V30 BEGIN BOND
M  V30 1 1 1 2
M  V30 2 1 2 3
M  V30 3 1 3 4
M  V30 4 1 3 5
M  V30 5 1 4 6
M  V30 6 1 4 7
M  V30 7 1 6 8
M  V30 8 1 7 9
M  V30 9 2 8 10
M  V30 10 1 10 11
M  V30 11 1 9 10
M  V30 END BOND
M  V30 END CTAB
M  END
>  <Molecule Name>
p-menth-1-en-9-ol

>  <Molecule Name 2>
p-menth-1-en-9-ol

>  <Database>
Essential Oil Database

>  <InChI>
InChI=1S/C10H18O/c1-8-3-5-10(6-4-8)9(2)7-11/h3,9-11H,4-7H2,1-2H3

>  <InChI-Key>
ZTYHGIAOVUPAAH-UHFFFAOYSA-N

>  <Smiles>
CC(CO)C1CC=C(C)CC1

>  <Molecular Formula>
C10H18O

$$$$
toluene
Actelion Java MolfileCreator 2.0

  0  0  0  0  0  0              0 V3000
M  V30 BEGIN CTAB
M  V30 COUNTS 7 7 0 0 0
M  V30 BEGIN ATOM
M  V30 1 C 0.0 0.0 0.0 0
M  V30 2 C 1.2619 -0.7228 0.0 0
M  V30 3 C -1.3599 -0.7228 0.0 0
M  V30 4 C -0.049 1.5682 0.0 0
M  V30 5 C 1.2129 -2.193 0.0 0
M  V30 6 C -1.4089 -2.193 0.0 0
M  V30 7 C -0.147 -2.9159 0.0 0
M  V30 END ATOM
M  V30 BEGIN BOND
M  V30 1 2 1 2
M  V30 2 1 1 3
M  V30 3 1 1 4
M  V30 4 1 2 5
M  V30 5 2 3 6
M  V30 6 2 5 7
M  V30 7 1 6 7
M  V30 END BOND
M  V30 END CTAB
M  END
>  <Molecule Name>
toluene

>  <Molecule Name 2>
toluene

>  <Database>
Essential Oil Database

>  <InChI>
InChI=1S/C7H8/c1-7-5-3-2-4-6-7/h2-6H,1H3

>  <InChI-Key>
YXFVVABEGXRONW-UHFFFAOYSA-N

>  <Smiles>
Cc1ccccc1

>  <Molecular Formula>
C7H8

$$$$
2-methylbutyl-2-methylbutyrate
Actelion Java MolfileCreator 2.0

  0  0  0  0  0  0              0 V3000
M  V30 BEGIN CTAB
M  V30 COUNTS 12 11 0 0 0
M  V30 BEGIN ATOM
M  V30 1 O 0.0 0.0 0.0 0
M  V30 2 C -0.0481 1.54 0.0 0
M  V30 3 O 1.1911 2.322 0.0 0
M  V30 4 C -1.3836 2.322 0.0 0
M  V30 5 C 2.4303 1.6001 0.0 0
M  V30 6 C -2.719 1.6001 0.0 0
M  V30 7 C -1.4317 3.862 0.0 0
M  V30 8 C 3.6695 2.3822 0.0 0
M  V30 9 C -4.0545 2.3822 0.0 0
M  V30 10 C 4.9087 1.6603 0.0 0
M  V30 11 C 3.6214 3.9222 0.0 0
M  V30 12 C 6.148 2.4423 0.0 0
M  V30 END ATOM
M  V30 BEGIN BOND
M  V30 1 2 1 2
M  V30 2 1 2 3
M  V30 3 1 2 4
M  V30 4 1 3 5
M  V30 5 1 4 6
M  V30 6 1 4 7
M  V30 7 1 5 8
M  V30 8 1 6 9
M  V30 9 1 8 10
M  V30 10 1 8 11
M  V30 11 1 10 12
M  V30 END BOND
M  V30 END CTAB
M  END
>  <Molecule Name>
2-methylbutyl-2-methylbutyrate

>  <Molecule Name 2>
2-methylbutyl-2-methylbutyrate

>  <Database>
Essential Oil Database

>  <InChI>
InChI=1S/C10H20O2/c1-5-8(3)7-12-10(11)9(4)6-2/h8-9H,5-7H2,1-4H3

>  <InChI-Key>
PVYFCGRBIREQLL-UHFFFAOYSA-N

>  <Smiles>
CCC(C)COC(C(C)CC)=O

>  <Molecular Formula>
C10H20O2

$$$$
2-methylbutylbutyrate
Actelion Java MolfileCreator 2.0

  0  0  0  0  0  0              0 V3000
M  V30 BEGIN CTAB
M  V30 COUNTS 11 10 0 0 0
M  V30 BEGIN ATOM
M  V30 1 O 0.0 0.0 0.0 0
M  V30 2 C 1.2767 -0.7313 0.0 0
M  V30 3 O 1.2271 -2.2187 0.0 0 CHG=-1
M  V30 4 C 2.5534 0.0743 0.0 0
M  V30 5 C 3.8302 -0.6569 0.0 0
M  V30 6 C 5.1069 0.1487 0.0 0
M  V30 7 C 6.3836 -0.5825 0.0 0
M  V30 8 C 7.6604 0.2231 0.0 0 CFG=2
M  V30 9 C 8.9371 -0.5082 0.0 0
M  V30 10 C 7.6108 1.8097 0.0 0
M  V30 11 C 10.2139 0.2974 0.0 0
M  V30 END ATOM
M  V30 BEGIN BOND
M  V30 1 2 1 2
M  V30 2 1 2 3
M  V30 3 1 2 4
M  V30 4 1 4 5
M  V30 5 1 5 6
M  V30 6 1 6 7
M  V30 7 1 7 8
M  V30 8 1 8 9
M  V30 9 1 8 10 CFG=1
M  V30 10 1 9 11
M  V30 END BOND
M  V30 BEGIN COLLECTION
M  V30 MDLV30/STERAC1 ATOMS=(1 8)
M  V30 END COLLECTION
M  V30 END CTAB
M  END
>  <Molecule Name>
2-methylbutylbutyrate

>  <Molecule Name 2>
2-methylbutylbutyrate

>  <Database>
Essential Oil Database

>  <InChI>
InChI=1S/C9H18O2/c1-3-8(2)6-4-5-7-9(10)11/h8H,3-7H2,1-2H3,(H,10,11)/p-1/t8-/m0/s1

>  <InChI-Key>
GPOPHQSTNHUENT-QMMMGPOBSA-M

>  <Smiles>
CCC(C)CCCCC([O-])=O

>  <Molecular Formula>
C9H17O2

$$$$
2-phenylethylbutyrate
Actelion Java MolfileCreator 2.0

  0  0  0  0  0  0              0 V3000
M  V30 BEGIN CTAB
M  V30 COUNTS 14 14 0 0 0
M  V30 BEGIN ATOM
M  V30 1 O 0.0 0.0 0.0 0
M  V30 2 C 1.2953 -0.713 0.0 0
M  V30 3 O 1.2478 -2.2104 0.0 0 CHG=-1
M  V30 4 C 2.5907 0.095 0.0 0
M  V30 5 C 3.886 -0.6179 0.0 0
M  V30 6 C 5.1814 0.1901 0.0 0
M  V30 7 C 6.4767 -0.5228 0.0 0
M  V30 8 C 7.7721 0.2852 0.0 0
M  V30 9 C 9.0674 -0.4278 0.0 0
M  V30 10 C 10.3628 0.3802 0.0 0
M  V30 11 C 9.0199 -1.9252 0.0 0
M  V30 12 C 11.6581 -0.3327 0.0 0
M  V30 13 C 10.3152 -2.6382 0.0 0
M  V30 14 C 11.6106 -1.8301 0.0 0
M  V30 END ATOM
M  V30 BEGIN BOND
M  V30 1 2 1 2
M  V30 2 1 2 3
M  V30 3 1 2 4
M  V30 4 1 4 5
M  V30 5 1 5 6
M  V30 6 1 6 7
M  V30 7 1 7 8
M  V30 8 1 8 9
M  V30 9 2 9 10
M  V30 10 1 9 11
M  V30 11 1 10 12
M  V30 12 2 11 13
M  V30 13 2 12 14
M  V30 14 1 13 14
M  V30 END BOND
M  V30 END CTAB
M  END
>  <Molecule Name>
2-phenylethylbutyrate

>  <Molecule Name 2>
2-phenylethylbutyrate

>  <Database>
Essential Oil Database

>  <InChI>
InChI=1S/C12H16O2/c13-12(14)10-6-2-5-9-11-7-3-1-4-8-11/h1,3-4,7-8H,2,5-6,9-10H2,(H,13,14)/p-1

>  <InChI-Key>
JTXZPQIXIXYMDY-UHFFFAOYSA-M

>  <Smiles>
[O-]C(CCCCCc1ccccc1)=O

>  <Molecular Formula>
C12H15O2

$$$$
2-phenylethylisovalerate
Actelion Java MolfileCreator 2.0

  0  0  0  0  0  0              0 V3000
M  V30 BEGIN CTAB
M  V30 COUNTS 15 15 0 0 0
M  V30 BEGIN ATOM
M  V30 1 O 0.0 0.0 0.0 0
M  V30 2 C -0.049 1.5697 0.0 0
M  V30 3 O 1.2141 2.3669 0.0 0
M  V30 4 C -1.4103 2.3669 0.0 0
M  V30 5 C 2.4773 1.631 0.0 0
M  V30 6 C -2.7716 1.631 0.0 0
M  V30 7 C 3.7404 2.4282 0.0 0
M  V30 8 C -4.1329 2.4282 0.0 0
M  V30 9 C -2.8206 0.1594 0.0 0
M  V30 10 C 5.0036 1.6924 0.0 0
M  V30 11 C 6.2668 2.4895 0.0 0
M  V30 12 C 4.9546 0.2207 0.0 0
M  V30 13 C 7.53 1.7537 0.0 0
M  V30 14 C 6.2177 -0.5028 0.0 0
M  V30 15 C 7.4809 0.282 0.0 0
M  V30 END ATOM
M  V30 BEGIN BOND
M  V30 1 2 1 2
M  V30 2 1 2 3
M  V30 3 1 2 4
M  V30 4 1 3 5
M  V30 5 1 4 6
M  V30 6 1 5 7
M  V30 7 1 6 8
M  V30 8 1 6 9
M  V30 9 1 7 10
M  V30 10 2 10 11
M  V30 11 1 10 12
M  V30 12 1 11 13
M  V30 13 2 12 14
M  V30 14 2 13 15
M  V30 15 1 14 15
M  V30 END BOND
M  V30 END CTAB
M  END
>  <Molecule Name>
2-phenylethylisovalerate

>  <Molecule Name 2>
2-phenylethylisovalerate

>  <Database>
Essential Oil Database

>  <InChI>
InChI=1S/C13H18O2/c1-11(2)10-13(14)15-9-8-12-6-4-3-5-7-12/h3-7,11H,8-10H2,1-2H3

>  <InChI-Key>
JIMGVOCOYZFDKB-UHFFFAOYSA-N

>  <Smiles>
CC(C)CC(OCCc1ccccc1)=O

>  <Molecular Formula>
C13H18O2

$$$$
benzyl butyrate
Actelion Java MolfileCreator 2.0

  0  0  0  0  0  0              0 V3000
M  V30 BEGIN CTAB
M  V30 COUNTS 13 13 0 0 0
M  V30 BEGIN ATOM
M  V30 1 O 0.0 0.0 0.0 0
M  V30 2 C -0.0469 -1.4783 0.0 0
M  V30 3 O 1.2319 -2.1705 0.0 0
M  V30 4 C -1.4196 -2.1705 0.0 0
M  V30 5 C 2.5107 -1.3492 0.0 0
M  V30 6 C -2.7923 -1.3492 0.0 0
M  V30 7 C 3.7896 -2.0414 0.0 0
M  V30 8 C -4.1651 -2.0414 0.0 0
M  V30 9 C 5.0685 -1.2202 0.0 0
M  V30 10 C 3.7427 -3.5198 0.0 0
M  V30 11 C 6.3473 -1.9124 0.0 0
M  V30 12 C 5.0215 -4.2237 0.0 0
M  V30 13 C 6.3004 -3.3907 0.0 0
M  V30 END ATOM
M  V30 BEGIN BOND
M  V30 1 2 1 2
M  V30 2 1 2 3
M  V30 3 1 2 4
M  V30 4 1 3 5
M  V30 5 1 4 6
M  V30 6 1 5 7
M  V30 7 1 6 8
M  V30 8 2 7 9
M  V30 9 1 7 10
M  V30 10 1 9 11
M  V30 11 2 10 12
M  V30 12 2 11 13
M  V30 13 1 12 13
M  V30 END BOND
M  V30 END CTAB
M  END
>  <Molecule Name>
benzyl butyrate

>  <Molecule Name 2>
benzyl butyrate

>  <Database>
Essential Oil Database

>  <InChI>
InChI=1S/C11H14O2/c1-2-6-11(12)13-9-10-7-4-3-5-8-10/h3-5,7-8H,2,6,9H2,1H3

>  <InChI-Key>
VONGZNXBKCOUHB-UHFFFAOYSA-N

>  <Smiles>
CCCC(OCc1ccccc1)=O

>  <Molecular Formula>
C11H14O2

$$$$
butyl butyrate
Actelion Java MolfileCreator 2.0

  0  0  0  0  0  0              0 V3000
M  V30 BEGIN CTAB
M  V30 COUNTS 10 9 0 0 0
M  V30 BEGIN ATOM
M  V30 1 O 0.0 0.0 0.0 0
M  V30 2 C -0.0484 1.5493 0.0 0
M  V30 3 O 1.1983 2.3361 0.0 0
M  V30 4 C -1.392 2.3361 0.0 0
M  V30 5 C 2.4451 1.6098 0.0 0
M  V30 6 C -2.7356 1.6098 0.0 0
M  V30 7 C 3.6918 2.3966 0.0 0
M  V30 8 C -4.0792 2.3966 0.0 0
M  V30 9 C 4.9386 1.6704 0.0 0
M  V30 10 C 6.1853 2.4572 0.0 0
M  V30 END ATOM
M  V30 BEGIN BOND
M  V30 1 2 1 2
M  V30 2 1 2 3
M  V30 3 1 2 4
M  V30 4 1 3 5
M  V30 5 1 4 6
M  V30 6 1 5 7
M  V30 7 1 6 8
M  V30 8 1 7 9
M  V30 9 1 9 10
M  V30 END BOND
M  V30 END CTAB
M  END
>  <Molecule Name>
butyl butyrate

>  <Molecule Name 2>
butyl butyrate

>  <Database>
Essential Oil Database

>  <InChI>
InChI=1S/C8H16O2/c1-3-5-7-10-8(9)6-4-2/h3-7H2,1-2H3

>  <InChI-Key>
XUPYJHCZDLZNFP-UHFFFAOYSA-N

>  <Smiles>
CCCCOC(CCC)=O

>  <Molecular Formula>
C8H16O2

$$$$
butyl isobutyrate
Actelion Java MolfileCreator 2.0

  0  0  0  0  0  0              0 V3000
M  V30 BEGIN CTAB
M  V30 COUNTS 10 9 0 0 0
M  V30 BEGIN ATOM
M  V30 1 O 0.0 0.0 0.0 0
M  V30 2 C -0.0484 1.5501 0.0 0
M  V30 3 O 1.1989 2.3373 0.0 0
M  V30 4 C -1.3927 2.3373 0.0 0
M  V30 5 C 2.4463 1.6107 0.0 0
M  V30 6 C -2.737 1.6107 0.0 0
M  V30 7 C -1.4411 3.8875 0.0 0
M  V30 8 C 3.6937 2.3979 0.0 0
M  V30 9 C 4.9411 1.6712 0.0 0
M  V30 10 C 6.1885 2.4584 0.0 0
M  V30 END ATOM
M  V30 BEGIN BOND
M  V30 1 2 1 2
M  V30 2 1 2 3
M  V30 3 1 2 4
M  V30 4 1 3 5
M  V30 5 1 4 6
M  V30 6 1 4 7
M  V30 7 1 5 8
M  V30 8 1 8 9
M  V30 9 1 9 10
M  V30 END BOND
M  V30 END CTAB
M  END
>  <Molecule Name>
butyl isobutyrate

>  <Molecule Name 2>
butyl isobutyrate

>  <Database>
Essential Oil Database

>  <InChI>
InChI=1S/C8H16O2/c1-4-5-6-10-8(9)7(2)3/h7H,4-6H2,1-3H3

>  <InChI-Key>
JSLCOZYBKYHZNL-UHFFFAOYSA-N

>  <Smiles>
CCCCOC(C(C)C)=O

>  <Molecular Formula>
C8H16O2

$$$$
butyl isovalerate
Actelion Java MolfileCreator 2.0

  0  0  0  0  0  0              0 V3000
M  V30 BEGIN CTAB
M  V30 COUNTS 11 10 0 0 0
M  V30 BEGIN ATOM
M  V30 1 O 0.0 0.0 0.0 0
M  V30 2 C -0.048 1.537 0.0 0
M  V30 3 O -1.3809 2.3175 0.0 0
M  V30 4 C 1.1887 2.3175 0.0 0
M  V30 5 C -2.7137 1.597 0.0 0
M  V30 6 C 2.4256 1.597 0.0 0
M  V30 7 C -4.0466 2.3775 0.0 0
M  V30 8 C 3.6624 2.3775 0.0 0
M  V30 9 C 2.3775 0.1561 0.0 0
M  V30 10 C -5.3795 1.657 0.0 0
M  V30 11 C -6.7124 2.4376 0.0 0
M  V30 END ATOM
M  V30 BEGIN BOND
M  V30 1 2 1 2
M  V30 2 1 2 3
M  V30 3 1 2 4
M  V30 4 1 3 5
M  V30 5 1 4 6
M  V30 6 1 5 7
M  V30 7 1 6 8
M  V30 8 1 6 9
M  V30 9 1 7 10
M  V30 10 1 10 11
M  V30 END BOND
M  V30 END CTAB
M  END
>  <Molecule Name>
butyl isovalerate

>  <Molecule Name 2>
butyl isovalerate

>  <Database>
Essential Oil Database

>  <InChI>
InChI=1S/C9H18O2/c1-4-5-6-11-9(10)7-8(2)3/h8H,4-7H2,1-3H3

>  <InChI-Key>
AYWJSCLAAPJZEF-UHFFFAOYSA-N

>  <Smiles>
CCCCOC(CC(C)C)=O

>  <Molecular Formula>
C9H18O2

$$$$
citronellol
Actelion Java MolfileCreator 2.0

  0  0  0  0  0  0              0 V3000
M  V30 BEGIN CTAB
M  V30 COUNTS 11 10 0 0 0
M  V30 BEGIN ATOM
M  V30 1 O 0.0 0.0 0.0 0
M  V30 2 C 1.2872 -0.7085 0.0 0
M  V30 3 C 2.5744 0.1299 0.0 0
M  V30 4 C 3.8617 -0.5786 0.0 0 CFG=2
M  V30 5 C 5.1489 0.2598 0.0 0
M  V30 6 C 3.8144 -2.0666 0.0 0
M  V30 7 C 6.4362 -0.4487 0.0 0
M  V30 8 C 7.7234 0.3897 0.0 0
M  V30 9 C 9.0107 -0.3188 0.0 0
M  V30 10 C 10.2979 0.5196 0.0 0
M  V30 11 C 8.9634 -1.8068 0.0 0
M  V30 END ATOM
M  V30 BEGIN BOND
M  V30 1 1 1 2
M  V30 2 1 2 3
M  V30 3 1 3 4
M  V30 4 1 4 5
M  V30 5 1 4 6 CFG=3
M  V30 6 1 5 7
M  V30 7 1 7 8
M  V30 8 2 8 9
M  V30 9 1 9 10
M  V30 10 1 9 11
M  V30 END BOND
M  V30 BEGIN COLLECTION
M  V30 MDLV30/STERAC1 ATOMS=(1 4)
M  V30 END COLLECTION
M  V30 END CTAB
M  END
>  <Molecule Name>
citronellol

>  <Molecule Name 2>
citronellol

>  <Database>
Essential Oil Database

>  <InChI>
InChI=1S/C10H20O/c1-9(2)5-4-6-10(3)7-8-11/h5,10-11H,4,6-8H2,1-3H3/t10-/m0/s1

>  <InChI-Key>
QMVPMAAFGQKVCJ-JTQLQIEISA-N

>  <Smiles>
CC(CCC=C(C)C)CCO

>  <Molecular Formula>
C10H20O

$$$$
geranyl butyrate
Actelion Java MolfileCreator 2.0

  0  0  0  0  0  0              0 V3000
M  V30 BEGIN CTAB
M  V30 COUNTS 16 15 0 0 0
M  V30 BEGIN ATOM
M  V30 1 O 0.0 0.0 0.0 0
M  V30 2 C -0.0489 1.5674 0.0 0
M  V30 3 O 1.2122 2.3633 0.0 0
M  V30 4 C -1.4082 2.3633 0.0 0
M  V30 5 C 2.4735 1.6286 0.0 0
M  V30 6 C -2.7674 1.6286 0.0 0
M  V30 7 C 3.7348 2.4245 0.0 0
M  V30 8 C -4.1267 2.4245 0.0 0
M  V30 9 C 4.9961 1.6898 0.0 0
M  V30 10 C 6.2574 2.4858 0.0 0
M  V30 11 C 4.9471 0.2204 0.0 0
M  V30 12 C 7.5187 1.751 0.0 0
M  V30 13 C 8.7799 2.547 0.0 0
M  V30 14 C 10.0412 1.8123 0.0 0
M  V30 15 C 11.3025 2.6082 0.0 0
M  V30 16 C 9.9922 0.3428 0.0 0
M  V30 END ATOM
M  V30 BEGIN BOND
M  V30 1 2 1 2
M  V30 2 1 2 3
M  V30 3 1 2 4
M  V30 4 1 3 5
M  V30 5 1 4 6
M  V30 6 1 5 7
M  V30 7 1 6 8
M  V30 8 2 7 9
M  V30 9 1 9 10
M  V30 10 1 9 11
M  V30 11 1 10 12
M  V30 12 1 12 13
M  V30 13 2 13 14
M  V30 14 1 14 15
M  V30 15 1 14 16
M  V30 END BOND
M  V30 END CTAB
M  END
>  <Molecule Name>
geranyl butyrate

>  <Molecule Name 2>
geranyl butyrate

>  <Database>
Essential Oil Database

>  <InChI>
InChI=1S/C14H24O2/c1-5-7-14(15)16-11-10-13(4)9-6-8-12(2)3/h8,10H,5-7,9,11H2,1-4H3/b13-10+

>  <InChI-Key>
ZSBOMYJPSRFZAL-JLHYYAGUSA-N

>  <Smiles>
CCCC(OC/C=C(\C)/CCC=C(C)C)=O

>  <Molecular Formula>
C14H24O2

$$$$
geranyl caproate
Actelion Java MolfileCreator 2.0

  0  0  0  0  0  0              0 V3000
M  V30 BEGIN CTAB
M  V30 COUNTS 18 17 0 0 0
M  V30 BEGIN ATOM
M  V30 1 O 0.0 0.0 0.0 0
M  V30 2 C -0.0487 1.5592 0.0 0
M  V30 3 O 1.206 2.3632 0.0 0
M  V30 4 C -1.4009 2.3632 0.0 0
M  V30 5 C 2.4607 1.6323 0.0 0
M  V30 6 C -2.7531 1.6323 0.0 0
M  V30 7 C 3.7154 2.4241 0.0 0
M  V30 8 C -4.1052 2.4241 0.0 0
M  V30 9 C 4.9702 1.6932 0.0 0
M  V30 10 C -5.4574 1.6932 0.0 0
M  V30 11 C 6.2249 2.4851 0.0 0
M  V30 12 C 4.9214 0.2314 0.0 0
M  V30 13 C -6.8096 2.4851 0.0 0
M  V30 14 C 7.4796 1.7541 0.0 0
M  V30 15 C 8.7344 2.546 0.0 0
M  V30 16 C 9.9891 1.8151 0.0 0
M  V30 17 C 11.2438 2.6069 0.0 0
M  V30 18 C 9.9404 0.3532 0.0 0
M  V30 END ATOM
M  V30 BEGIN BOND
M  V30 1 2 1 2
M  V30 2 1 2 3
M  V30 3 1 2 4
M  V30 4 1 3 5
M  V30 5 1 4 6
M  V30 6 1 5 7
M  V30 7 1 6 8
M  V30 8 2 7 9
M  V30 9 1 8 10
M  V30 10 1 9 11
M  V30 11 1 9 12
M  V30 12 1 10 13
M  V30 13 1 11 14
M  V30 14 1 14 15
M  V30 15 2 15 16
M  V30 16 1 16 17
M  V30 17 1 16 18
M  V30 END BOND
M  V30 END CTAB
M  END
>  <Molecule Name>
geranyl caproate

>  <Molecule Name 2>
geranyl caproate

>  <Database>
Essential Oil Database

>  <InChI>
InChI=1S/C16H28O2/c1-5-6-7-11-16(17)18-13-12-15(4)10-8-9-14(2)3/h9,12H,5-8,10-11,13H2,1-4H3/b15-12+

>  <InChI-Key>
ARVSCQUZFFSNKF-NTCAYCPXSA-N

>  <Smiles>
CCCCCC(OC/C=C(\C)/CCC=C(C)C)=O

>  <Molecular Formula>
C16H28O2

$$$$
heptyl butyrate
Actelion Java MolfileCreator 2.0

  0  0  0  0  0  0              0 V3000
M  V30 BEGIN CTAB
M  V30 COUNTS 13 12 0 0 0
M  V30 BEGIN ATOM
M  V30 1 O 0.0 0.0 0.0 0
M  V30 2 C -0.0466 -1.4689 0.0 0
M  V30 3 O 1.2241 -2.1684 0.0 0
M  V30 4 C -1.4106 -2.1684 0.0 0
M  V30 5 C 2.4949 -1.3407 0.0 0
M  V30 6 C -2.7747 -1.3407 0.0 0
M  V30 7 C 3.7657 -2.0402 0.0 0
M  V30 8 C -4.1388 -2.0402 0.0 0
M  V30 9 C 5.0365 -1.2124 0.0 0
M  V30 10 C 6.3072 -1.912 0.0 0
M  V30 11 C 7.578 -1.0842 0.0 0
M  V30 12 C 8.8488 -1.7837 0.0 0
M  V30 13 C 10.1196 -0.956 0.0 0
M  V30 END ATOM
M  V30 BEGIN BOND
M  V30 1 2 1 2
M  V30 2 1 2 3
M  V30 3 1 2 4
M  V30 4 1 3 5
M  V30 5 1 4 6
M  V30 6 1 5 7
M  V30 7 1 6 8
M  V30 8 1 7 9
M  V30 9 1 9 10
M  V30 10 1 10 11
M  V30 11 1 11 12
M  V30 12 1 12 13
M  V30 END BOND
M  V30 END CTAB
M  END
>  <Molecule Name>
heptyl butyrate

>  <Molecule Name 2>
heptyl butyrate

>  <Database>
Essential Oil Database

>  <InChI>
InChI=1S/C11H22O2/c1-3-5-6-7-8-10-13-11(12)9-4-2/h3-10H2,1-2H3

>  <InChI-Key>
JPQHLIYIQARLQM-UHFFFAOYSA-N

>  <Smiles>
CCCCCCCOC(CCC)=O

>  <Molecular Formula>
C11H22O2

$$$$
hexenal
Actelion Java MolfileCreator 2.0

  0  0  0  0  0  0              0 V3000
M  V30 BEGIN CTAB
M  V30 COUNTS 7 6 0 0 0
M  V30 BEGIN ATOM
M  V30 1 O 0.0 0.0 0.0 0
M  V30 2 C 0.7178 -1.2532 0.0 0
M  V30 3 C -0.0608 -2.5064 0.0 0
M  V30 4 C -1.6182 -2.4578 0.0 0
M  V30 5 C -2.4091 -3.711 0.0 0
M  V30 6 C -3.9665 -3.6623 0.0 0
M  V30 7 C -4.7574 -4.9156 0.0 0
M  V30 END ATOM
M  V30 BEGIN BOND
M  V30 1 2 1 2
M  V30 2 1 2 3
M  V30 3 2 3 4 CFG=2
M  V30 4 1 4 5
M  V30 5 1 5 6
M  V30 6 1 6 7
M  V30 END BOND
M  V30 END CTAB
M  END
>  <Molecule Name>
hexenal

>  <Molecule Name 2>
hexenal

>  <Database>
Essential Oil Database

>  <InChI>
InChI=1S/C6H10O/c1-2-3-4-5-6-7/h4-6H,2-3H2,1H3

>  <InChI-Key>
MBDOYVRWFFCFHM-UHFFFAOYSA-N

>  <Smiles>
CCCC=CC=O

>  <Molecular Formula>
C6H10O

$$$$
hexyl acetate
Actelion Java MolfileCreator 2.0

  0  0  0  0  0  0              0 V3000
M  V30 BEGIN CTAB
M  V30 COUNTS 10 9 0 0 0
M  V30 BEGIN ATOM
M  V30 1 O 0.0 0.0 0.0 0
M  V30 2 C 1.2861 -0.7079 0.0 0
M  V30 3 O 2.5723 0.1297 0.0 0
M  V30 4 C 1.2389 -2.1947 0.0 0
M  V30 5 C 3.8585 -0.5781 0.0 0
M  V30 6 C 5.1446 0.2595 0.0 0
M  V30 7 C 6.4308 -0.4483 0.0 0
M  V30 8 C 7.717 0.3893 0.0 0
M  V30 9 C 9.0032 -0.3185 0.0 0
M  V30 10 C 10.2893 0.5191 0.0 0
M  V30 END ATOM
M  V30 BEGIN BOND
M  V30 1 2 1 2
M  V30 2 1 2 3
M  V30 3 1 2 4
M  V30 4 1 3 5
M  V30 5 1 5 6
M  V30 6 1 6 7
M  V30 7 1 7 8
M  V30 8 1 8 9
M  V30 9 1 9 10
M  V30 END BOND
M  V30 END CTAB
M  END
>  <Molecule Name>
hexyl acetate

>  <Molecule Name 2>
hexyl acetate

>  <Database>
Essential Oil Database

>  <InChI>
InChI=1S/C8H16O2/c1-3-4-5-6-7-10-8(2)9/h3-7H2,1-2H3

>  <InChI-Key>
AOGQPLXWSUTHQB-UHFFFAOYSA-N

>  <Smiles>
CCCCCCOC(C)=O

>  <Molecular Formula>
C8H16O2

$$$$
hexyl butyrate
Actelion Java MolfileCreator 2.0

  0  0  0  0  0  0              0 V3000
M  V30 BEGIN CTAB
M  V30 COUNTS 12 11 0 0 0
M  V30 BEGIN ATOM
M  V30 1 O 0.0 0.0 0.0 0
M  V30 2 C -0.0485 1.5535 0.0 0
M  V30 3 O 1.2015 2.3546 0.0 0
M  V30 4 C -1.3957 2.3546 0.0 0
M  V30 5 C 2.4517 1.6263 0.0 0
M  V30 6 C -2.743 1.6263 0.0 0
M  V30 7 C 3.7018 2.4274 0.0 0
M  V30 8 C -4.0902 2.4274 0.0 0
M  V30 9 C 4.952 1.6992 0.0 0
M  V30 10 C 6.2021 2.5002 0.0 0
M  V30 11 C 7.4522 1.772 0.0 0
M  V30 12 C 8.7024 2.573 0.0 0
M  V30 END ATOM
M  V30 BEGIN BOND
M  V30 1 2 1 2
M  V30 2 1 2 3
M  V30 3 1 2 4
M  V30 4 1 3 5
M  V30 5 1 4 6
M  V30 6 1 5 7
M  V30 7 1 6 8
M  V30 8 1 7 9
M  V30 9 1 9 10
M  V30 10 1 10 11
M  V30 11 1 11 12
M  V30 END BOND
M  V30 END CTAB
M  END
>  <Molecule Name>
hexyl butyrate

>  <Molecule Name 2>
hexyl butyrate

>  <Database>
Essential Oil Database

>  <InChI>
InChI=1S/C10H20O2/c1-3-5-6-7-9-12-10(11)8-4-2/h3-9H2,1-2H3

>  <InChI-Key>
XAPCMTMQBXLDBB-UHFFFAOYSA-N

>  <Smiles>
CCCCCCOC(CCC)=O

>  <Molecular Formula>
C10H20O2

$$$$
hexyl hexanoate
Actelion Java MolfileCreator 2.0

  0  0  0  0  0  0              0 V3000
M  V30 BEGIN CTAB
M  V30 COUNTS 14 13 0 0 0
M  V30 BEGIN ATOM
M  V30 1 O 0.0 0.0 0.0 0
M  V30 2 C -0.0485 1.5521 0.0 0
M  V30 3 O 1.2004 2.3403 0.0 0
M  V30 4 C -1.3944 2.3403 0.0 0
M  V30 5 C 2.4494 1.6248 0.0 0
M  V30 6 C -2.7404 1.6248 0.0 0
M  V30 7 C 3.6984 2.413 0.0 0
M  V30 8 C -4.0864 2.413 0.0 0
M  V30 9 C 4.9473 1.6976 0.0 0
M  V30 10 C -5.4324 1.6976 0.0 0
M  V30 11 C 6.1963 2.4858 0.0 0
M  V30 12 C -6.7784 2.4858 0.0 0
M  V30 13 C 7.4453 1.7703 0.0 0
M  V30 14 C 8.6943 2.5464 0.0 0
M  V30 END ATOM
M  V30 BEGIN BOND
M  V30 1 2 1 2
M  V30 2 1 2 3
M  V30 3 1 2 4
M  V30 4 1 3 5
M  V30 5 1 4 6
M  V30 6 1 5 7
M  V30 7 1 6 8
M  V30 8 1 7 9
M  V30 9 1 8 10
M  V30 10 1 9 11
M  V30 11 1 10 12
M  V30 12 1 11 13
M  V30 13 1 13 14
M  V30 END BOND
M  V30 END CTAB
M  END
>  <Molecule Name>
hexyl hexanoate

>  <Molecule Name 2>
hexyl hexanoate

>  <Database>
Essential Oil Database

>  <InChI>
InChI=1S/C12H24O2/c1-3-5-7-9-11-14-12(13)10-8-6-4-2/h3-11H2,1-2H3

>  <InChI-Key>
NCDCLPBOMHPFCV-UHFFFAOYSA-N

>  <Smiles>
CCCCCCOC(CCCCC)=O

>  <Molecular Formula>
C12H24O2

$$$$
hexyl isobutyrate
Actelion Java MolfileCreator 2.0

  0  0  0  0  0  0              0 V3000
M  V30 BEGIN CTAB
M  V30 COUNTS 12 11 0 0 0
M  V30 BEGIN ATOM
M  V30 1 O 0.0 0.0 0.0 0
M  V30 2 C -0.0486 1.5578 0.0 0
M  V30 3 O 1.2048 2.3489 0.0 0
M  V30 4 C -1.3996 2.3489 0.0 0
M  V30 5 C 2.4584 1.6186 0.0 0
M  V30 6 C -2.7505 1.6186 0.0 0
M  V30 7 C -1.4483 3.9067 0.0 0
M  V30 8 C 3.712 2.4097 0.0 0
M  V30 9 C 4.9656 1.6795 0.0 0
M  V30 10 C 6.2192 2.4706 0.0 0
M  V30 11 C 7.4727 1.7404 0.0 0
M  V30 12 C 8.7263 2.5314 0.0 0
M  V30 END ATOM
M  V30 BEGIN BOND
M  V30 1 2 1 2
M  V30 2 1 2 3
M  V30 3 1 2 4
M  V30 4 1 3 5
M  V30 5 1 4 6
M  V30 6 1 4 7
M  V30 7 1 5 8
M  V30 8 1 8 9
M  V30 9 1 9 10
M  V30 10 1 10 11
M  V30 11 1 11 12
M  V30 END BOND
M  V30 END CTAB
M  END
>  <Molecule Name>
hexyl isobutyrate

>  <Molecule Name 2>
hexyl isobutyrate

>  <Database>
Essential Oil Database

>  <InChI>
InChI=1S/C10H20O2/c1-4-5-6-7-8-12-10(11)9(2)3/h9H,4-8H2,1-3H3

>  <InChI-Key>
CYHBDKTZDLSRMY-UHFFFAOYSA-N

>  <Smiles>
CCCCCCOC(C(C)C)=O

>  <Molecular Formula>
C10H20O2

$$$$
hexyl propionate
Actelion Java MolfileCreator 2.0

  0  0  0  0  0  0              0 V3000
M  V30 BEGIN CTAB
M  V30 COUNTS 11 10 0 0 0
M  V30 BEGIN ATOM
M  V30 1 O 0.0 0.0 0.0 0
M  V30 2 C -0.0488 1.5619 0.0 0
M  V30 3 O 1.208 2.3673 0.0 0
M  V30 4 C -1.4033 2.3673 0.0 0
M  V30 5 C 2.4649 1.6351 0.0 0
M  V30 6 C -2.7578 1.6351 0.0 0
M  V30 7 C 3.7218 2.4283 0.0 0
M  V30 8 C 4.9786 1.6961 0.0 0
M  V30 9 C 6.2355 2.5015 0.0 0
M  V30 10 C 7.4924 1.7693 0.0 0
M  V30 11 C 8.7493 2.5625 0.0 0
M  V30 END ATOM
M  V30 BEGIN BOND
M  V30 1 2 1 2
M  V30 2 1 2 3
M  V30 3 1 2 4
M  V30 4 1 3 5
M  V30 5 1 4 6
M  V30 6 1 5 7
M  V30 7 1 7 8
M  V30 8 1 8 9
M  V30 9 1 9 10
M  V30 10 1 10 11
M  V30 END BOND
M  V30 END CTAB
M  END
>  <Molecule Name>
hexyl propionate

>  <Molecule Name 2>
hexyl propionate

>  <Database>
Essential Oil Database

>  <InChI>
InChI=1S/C9H18O2/c1-3-5-6-7-8-11-9(10)4-2/h3-8H2,1-2H3

>  <InChI-Key>
GOKKOFHHJFGZHW-UHFFFAOYSA-N

>  <Smiles>
CCCCCCOC(CC)=O

>  <Molecular Formula>
C9H18O2

$$$$
hexyl valerate
Actelion Java MolfileCreator 2.0

  0  0  0  0  0  0              0 V3000
M  V30 BEGIN CTAB
M  V30 COUNTS 13 12 0 0 0
M  V30 BEGIN ATOM
M  V30 1 O 0.0 0.0 0.0 0
M  V30 2 C -0.0485 1.5541 0.0 0
M  V30 3 O 1.202 2.3433 0.0 0
M  V30 4 C -1.3963 2.3433 0.0 0
M  V30 5 C 2.4526 1.6148 0.0 0
M  V30 6 C -2.744 1.6148 0.0 0
M  V30 7 C 3.7032 2.4041 0.0 0
M  V30 8 C -4.0918 2.4041 0.0 0
M  V30 9 C 4.9539 1.6755 0.0 0
M  V30 10 C -5.4395 1.6755 0.0 0
M  V30 11 C 6.2045 2.4648 0.0 0
M  V30 12 C 7.4551 1.7362 0.0 0
M  V30 13 C 8.7057 2.5255 0.0 0
M  V30 END ATOM
M  V30 BEGIN BOND
M  V30 1 2 1 2
M  V30 2 1 2 3
M  V30 3 1 2 4
M  V30 4 1 3 5
M  V30 5 1 4 6
M  V30 6 1 5 7
M  V30 7 1 6 8
M  V30 8 1 7 9
M  V30 9 1 8 10
M  V30 10 1 9 11
M  V30 11 1 11 12
M  V30 12 1 12 13
M  V30 END BOND
M  V30 END CTAB
M  END
>  <Molecule Name>
hexyl valerate

>  <Molecule Name 2>
hexyl valerate

>  <Database>
Essential Oil Database

>  <InChI>
InChI=1S/C11H22O2/c1-3-5-7-8-10-13-11(12)9-6-4-2/h3-10H2,1-2H3

>  <InChI-Key>
YERFHJZYNMRVLO-UHFFFAOYSA-N

>  <Smiles>
CCCCCCOC(CCCC)=O

>  <Molecular Formula>
C11H22O2

$$$$
isobutyl-2-methyl butyrate
Actelion Java MolfileCreator 2.0

  0  0  0  0  0  0              0 V3000
M  V30 BEGIN CTAB
M  V30 COUNTS 11 10 0 0 0
M  V30 BEGIN ATOM
M  V30 1 O 0.0 0.0 0.0 0
M  V30 2 C -0.0466 -1.4684 0.0 0
M  V30 3 O 1.2237 -2.1677 0.0 0
M  V30 4 C -1.4102 -2.1677 0.0 0 CFG=2
M  V30 5 C 2.494 -1.3402 0.0 0
M  V30 6 C -2.7738 -1.3402 0.0 0
M  V30 7 C -1.4568 -3.6362 0.0 0
M  V30 8 C 3.7644 -2.0395 0.0 0
M  V30 9 C -4.1374 -2.0395 0.0 0
M  V30 10 C 5.0348 -1.212 0.0 0
M  V30 11 C 3.7178 -3.508 0.0 0
M  V30 END ATOM
M  V30 BEGIN BOND
M  V30 1 2 1 2
M  V30 2 1 2 3
M  V30 3 1 2 4
M  V30 4 1 3 5
M  V30 5 1 4 6
M  V30 6 1 4 7 CFG=1
M  V30 7 1 5 8
M  V30 8 1 6 9
M  V30 9 1 8 10
M  V30 10 1 8 11
M  V30 END BOND
M  V30 BEGIN COLLECTION
M  V30 MDLV30/STERAC1 ATOMS=(1 4)
M  V30 END COLLECTION
M  V30 END CTAB
M  END
>  <Molecule Name>
isobutyl-2-methyl butyrate

>  <Molecule Name 2>
isobutyl-2-methyl butyrate

>  <Database>
Essential Oil Database

>  <InChI>
InChI=1S/C9H18O2/c1-5-8(4)9(10)11-6-7(2)3/h7-8H,5-6H2,1-4H3/t8-/m0/s1

>  <InChI-Key>
NWZQCEQAPBRMFX-QMMMGPOBSA-N

>  <Smiles>
CCC(C)C(OCC(C)C)=O

>  <Molecular Formula>
C9H18O2

$$$$
isobutylbutyrate
Actelion Java MolfileCreator 2.0

  0  0  0  0  0  0              0 V3000
M  V30 BEGIN CTAB
M  V30 COUNTS 10 9 0 0 0
M  V30 BEGIN ATOM
M  V30 1 O 0.0 0.0 0.0 0
M  V30 2 C 1.2722 0.8028 0.0 0
M  V30 3 O 1.2228 2.3839 0.0 0 CHG=-1
M  V30 4 C 2.5445 0.0617 0.0 0
M  V30 5 C 3.8168 0.8646 0.0 0
M  V30 6 C 5.0891 0.1235 0.0 0
M  V30 7 C 6.3614 0.9264 0.0 0
M  V30 8 C 7.6337 0.1852 0.0 0
M  V30 9 C 8.906 0.9881 0.0 0
M  V30 10 C 7.5843 -1.2969 0.0 0
M  V30 END ATOM
M  V30 BEGIN BOND
M  V30 1 2 1 2
M  V30 2 1 2 3
M  V30 3 1 2 4
M  V30 4 1 4 5
M  V30 5 1 5 6
M  V30 6 1 6 7
M  V30 7 1 7 8
M  V30 8 1 8 9
M  V30 9 1 8 10
M  V30 END BOND
M  V30 END CTAB
M  END
>  <Molecule Name>
isobutylbutyrate

>  <Molecule Name 2>
isobutylbutyrate

>  <Database>
Essential Oil Database

>  <InChI>
InChI=1S/C8H16O2/c1-7(2)5-3-4-6-8(9)10/h7H,3-6H2,1-2H3,(H,9,10)/p-1

>  <InChI-Key>
OEOIWYCWCDBOPA-UHFFFAOYSA-M

>  <Smiles>
CC(C)CCCCC([O-])=O

>  <Molecular Formula>
C8H15O2

$$$$
octyl-2-methylbutyrate
Actelion Java MolfileCreator 2.0

  0  0  0  0  0  0              0 V3000
M  V30 BEGIN CTAB
M  V30 COUNTS 15 14 0 0 0
M  V30 BEGIN ATOM
M  V30 1 O 0.0 0.0 0.0 0
M  V30 2 C -0.0487 1.5601 0.0 0
M  V30 3 O 1.2067 2.3524 0.0 0
M  V30 4 C -1.4017 2.3524 0.0 0 CFG=2
M  V30 5 C 2.4621 1.6333 0.0 0
M  V30 6 C -2.7547 1.6333 0.0 0
M  V30 7 C -1.4504 3.9126 0.0 0
M  V30 8 C 3.7176 2.4255 0.0 0
M  V30 9 C -4.1076 2.4255 0.0 0
M  V30 10 C 4.973 1.7064 0.0 0
M  V30 11 C 6.2285 2.4987 0.0 0
M  V30 12 C 7.484 1.7795 0.0 0
M  V30 13 C 8.7394 2.5718 0.0 0
M  V30 14 C 9.9949 1.8527 0.0 0
M  V30 15 C 11.2503 2.645 0.0 0
M  V30 END ATOM
M  V30 BEGIN BOND
M  V30 1 2 1 2
M  V30 2 1 2 3
M  V30 3 1 2 4
M  V30 4 1 3 5
M  V30 5 1 4 6
M  V30 6 1 4 7 CFG=3
M  V30 7 1 5 8
M  V30 8 1 6 9
M  V30 9 1 8 10
M  V30 10 1 10 11
M  V30 11 1 11 12
M  V30 12 1 12 13
M  V30 13 1 13 14
M  V30 14 1 14 15
M  V30 END BOND
M  V30 BEGIN COLLECTION
M  V30 MDLV30/STERAC1 ATOMS=(1 4)
M  V30 END COLLECTION
M  V30 END CTAB
M  END
>  <Molecule Name>
octyl-2-methylbutyrate

>  <Molecule Name 2>
octyl-2-methylbutyrate

>  <Database>
Essential Oil Database

>  <InChI>
InChI=1S/C13H26O2/c1-4-6-7-8-9-10-11-15-13(14)12(3)5-2/h12H,4-11H2,1-3H3/t12-/m0/s1

>  <InChI-Key>
BCOJVEMHTBSAOE-LBPRGKRZSA-N

>  <Smiles>
CCCCCCCCOC(C(C)CC)=O

>  <Molecular Formula>
C13H26O2

$$$$
octyl butyrate
Actelion Java MolfileCreator 2.0

  0  0  0  0  0  0              0 V3000
M  V30 BEGIN CTAB
M  V30 COUNTS 14 13 0 0 0
M  V30 BEGIN ATOM
M  V30 1 O 0.0 0.0 0.0 0
M  V30 2 C -0.0489 1.566 0.0 0
M  V30 3 O 1.2112 2.3491 0.0 0
M  V30 4 C -1.407 2.3491 0.0 0
M  V30 5 C 2.4714 1.6272 0.0 0
M  V30 6 C -2.7651 1.6272 0.0 0
M  V30 7 C 3.7317 2.4225 0.0 0
M  V30 8 C -4.1232 2.4225 0.0 0
M  V30 9 C 4.9919 1.7006 0.0 0
M  V30 10 C 6.2521 2.4959 0.0 0
M  V30 11 C 7.5123 1.774 0.0 0
M  V30 12 C 8.7725 2.5693 0.0 0
M  V30 13 C 10.0327 1.8474 0.0 0
M  V30 14 C 11.2929 2.6427 0.0 0
M  V30 END ATOM
M  V30 BEGIN BOND
M  V30 1 2 1 2
M  V30 2 1 2 3
M  V30 3 1 2 4
M  V30 4 1 3 5
M  V30 5 1 4 6
M  V30 6 1 5 7
M  V30 7 1 6 8
M  V30 8 1 7 9
M  V30 9 1 9 10
M  V30 10 1 10 11
M  V30 11 1 11 12
M  V30 12 1 12 13
M  V30 13 1 13 14
M  V30 END BOND
M  V30 END CTAB
M  END
>  <Molecule Name>
octyl butyrate

>  <Molecule Name 2>
octyl butyrate

>  <Database>
Essential Oil Database

>  <InChI>
InChI=1S/C12H24O2/c1-3-5-6-7-8-9-11-14-12(13)10-4-2/h3-11H2,1-2H3

>  <InChI-Key>
PWLNAUNEAKQYLH-UHFFFAOYSA-N

>  <Smiles>
CCCCCCCCOC(CCC)=O

>  <Molecular Formula>
C12H24O2

$$$$
octyl hexanoate
Actelion Java MolfileCreator 2.0

  0  0  0  0  0  0              0 V3000
M  V30 BEGIN CTAB
M  V30 COUNTS 16 15 0 0 0
M  V30 BEGIN ATOM
M  V30 1 O 0.0 0.0 0.0 0
M  V30 2 C -0.0486 1.5554 0.0 0
M  V30 3 O 1.203 2.3453 0.0 0
M  V30 4 C -1.3974 2.3453 0.0 0
M  V30 5 C 2.4546 1.6162 0.0 0
M  V30 6 C -2.7463 1.6162 0.0 0
M  V30 7 C 3.7063 2.406 0.0 0
M  V30 8 C -4.0951 2.406 0.0 0
M  V30 9 C 4.9579 1.6769 0.0 0
M  V30 10 C -5.444 1.6769 0.0 0
M  V30 11 C 6.2096 2.4668 0.0 0
M  V30 12 C -6.7929 2.4668 0.0 0
M  V30 13 C 7.4612 1.7377 0.0 0
M  V30 14 C 8.7129 2.5275 0.0 0
M  V30 15 C 9.9645 1.7984 0.0 0
M  V30 16 C 11.2161 2.5762 0.0 0
M  V30 END ATOM
M  V30 BEGIN BOND
M  V30 1 2 1 2
M  V30 2 1 2 3
M  V30 3 1 2 4
M  V30 4 1 3 5
M  V30 5 1 4 6
M  V30 6 1 5 7
M  V30 7 1 6 8
M  V30 8 1 7 9
M  V30 9 1 8 10
M  V30 10 1 9 11
M  V30 11 1 10 12
M  V30 12 1 11 13
M  V30 13 1 13 14
M  V30 14 1 14 15
M  V30 15 1 15 16
M  V30 END BOND
M  V30 END CTAB
M  END
>  <Molecule Name>
octyl hexanoate

>  <Molecule Name 2>
octyl hexanoate

>  <Database>
Essential Oil Database

>  <InChI>
InChI=1S/C14H28O2/c1-3-5-7-8-9-11-13-16-14(15)12-10-6-4-2/h3-13H2,1-2H3

>  <InChI-Key>
CMNMHJVRZHGAAK-UHFFFAOYSA-N

>  <Smiles>
CCCCCCCCOC(CCCCC)=O

>  <Molecular Formula>
C14H28O2

$$$$
octyl isobutyrate
Actelion Java MolfileCreator 2.0

  0  0  0  0  0  0              0 V3000
M  V30 BEGIN CTAB
M  V30 COUNTS 14 13 0 0 0
M  V30 BEGIN ATOM
M  V30 1 O 0.0 0.0 0.0 0
M  V30 2 C -0.0488 1.5632 0.0 0
M  V30 3 O 1.209 2.357 0.0 0
M  V30 4 C -1.4044 2.357 0.0 0
M  V30 5 C 2.4669 1.6242 0.0 0
M  V30 6 C -2.76 1.6242 0.0 0
M  V30 7 C -1.4532 3.9202 0.0 0
M  V30 8 C 3.7248 2.418 0.0 0
M  V30 9 C 4.9827 1.6853 0.0 0
M  V30 10 C 6.2406 2.4791 0.0 0
M  V30 11 C 7.4985 1.7463 0.0 0
M  V30 12 C 8.7564 2.5402 0.0 0
M  V30 13 C 10.0143 1.8074 0.0 0
M  V30 14 C 11.2722 2.6012 0.0 0
M  V30 END ATOM
M  V30 BEGIN BOND
M  V30 1 2 1 2
M  V30 2 1 2 3
M  V30 3 1 2 4
M  V30 4 1 3 5
M  V30 5 1 4 6
M  V30 6 1 4 7
M  V30 7 1 5 8
M  V30 8 1 8 9
M  V30 9 1 9 10
M  V30 10 1 10 11
M  V30 11 1 11 12
M  V30 12 1 12 13
M  V30 13 1 13 14
M  V30 END BOND
M  V30 END CTAB
M  END
>  <Molecule Name>
octyl isobutyrate

>  <Molecule Name 2>
octyl isobutyrate

>  <Database>
Essential Oil Database

>  <InChI>
InChI=1S/C12H24O2/c1-4-5-6-7-8-9-10-14-12(13)11(2)3/h11H,4-10H2,1-3H3

>  <InChI-Key>
PQCYCHFQWMNQRJ-UHFFFAOYSA-N

>  <Smiles>
CCCCCCCCOC(C(C)C)=O

>  <Molecular Formula>
C12H24O2

$$$$
octyl isovalerate
Actelion Java MolfileCreator 2.0

  0  0  0  0  0  0              0 V3000
M  V30 BEGIN CTAB
M  V30 COUNTS 15 14 0 0 0
M  V30 BEGIN ATOM
M  V30 1 O 0.0 0.0 0.0 0
M  V30 2 C -0.0489 1.5674 0.0 0
M  V30 3 O 1.2123 2.3634 0.0 0
M  V30 4 C -1.4082 2.3634 0.0 0
M  V30 5 C 2.4736 1.6409 0.0 0
M  V30 6 C -2.7675 1.6409 0.0 0
M  V30 7 C 3.7349 2.4369 0.0 0
M  V30 8 C -4.1268 2.4369 0.0 0
M  V30 9 C -2.8165 0.1714 0.0 0
M  V30 10 C 4.9962 1.7144 0.0 0
M  V30 11 C 6.2575 2.5103 0.0 0
M  V30 12 C 7.5189 1.7878 0.0 0
M  V30 13 C 8.7802 2.5838 0.0 0
M  V30 14 C 10.0415 1.8613 0.0 0
M  V30 15 C 11.3028 2.6573 0.0 0
M  V30 END ATOM
M  V30 BEGIN BOND
M  V30 1 2 1 2
M  V30 2 1 2 3
M  V30 3 1 2 4
M  V30 4 1 3 5
M  V30 5 1 4 6
M  V30 6 1 5 7
M  V30 7 1 6 8
M  V30 8 1 6 9
M  V30 9 1 7 10
M  V30 10 1 10 11
M  V30 11 1 11 12
M  V30 12 1 12 13
M  V30 13 1 13 14
M  V30 14 1 14 15
M  V30 END BOND
M  V30 END CTAB
M  END
>  <Molecule Name>
octyl isovalerate

>  <Molecule Name 2>
octyl isovalerate

>  <Database>
Essential Oil Database

>  <InChI>
InChI=1S/C13H26O2/c1-4-5-6-7-8-9-10-15-13(14)11-12(2)3/h12H,4-11H2,1-3H3

>  <InChI-Key>
FUBGRVHGQADOJI-UHFFFAOYSA-N

>  <Smiles>
CCCCCCCCOC(CC(C)C)=O

>  <Molecular Formula>
C13H26O2

$$$$
pentyl butyrate
Actelion Java MolfileCreator 2.0

  0  0  0  0  0  0              0 V3000
M  V30 BEGIN CTAB
M  V30 COUNTS 11 10 0 0 0
M  V30 BEGIN ATOM
M  V30 1 O 0.0 0.0 0.0 0
M  V30 2 C -0.0464 -1.4641 0.0 0
M  V30 3 O 1.2201 -2.1729 0.0 0
M  V30 4 C -1.406 -2.1729 0.0 0
M  V30 5 C 2.4867 -1.3479 0.0 0
M  V30 6 C -2.7656 -1.3479 0.0 0
M  V30 7 C 3.7533 -2.0451 0.0 0
M  V30 8 C -4.1251 -2.0451 0.0 0
M  V30 9 C 5.0199 -1.2201 0.0 0
M  V30 10 C 6.2865 -1.9289 0.0 0
M  V30 11 C 7.5531 -1.1039 0.0 0
M  V30 END ATOM
M  V30 BEGIN BOND
M  V30 1 2 1 2
M  V30 2 1 2 3
M  V30 3 1 2 4
M  V30 4 1 3 5
M  V30 5 1 4 6
M  V30 6 1 5 7
M  V30 7 1 6 8
M  V30 8 1 7 9
M  V30 9 1 9 10
M  V30 10 1 10 11
M  V30 END BOND
M  V30 END CTAB
M  END
>  <Molecule Name>
pentyl butyrate

>  <Molecule Name 2>
pentyl butyrate

>  <Database>
Essential Oil Database

>  <InChI>
InChI=1S/C9H18O2/c1-3-5-6-8-11-9(10)7-4-2/h3-8H2,1-2H3

>  <InChI-Key>
CFNJLPHOBMVMNS-UHFFFAOYSA-N

>  <Smiles>
CCCCCOC(CCC)=O

>  <Molecular Formula>
C9H18O2

$$$$
pentyl hexanoate
Actelion Java MolfileCreator 2.0

  0  0  0  0  0  0              0 V3000
M  V30 BEGIN CTAB
M  V30 COUNTS 13 12 0 0 0
M  V30 BEGIN ATOM
M  V30 1 O 0.0 0.0 0.0 0
M  V30 2 C -0.0461 -1.4523 0.0 0
M  V30 3 O 1.2103 -2.167 0.0 0
M  V30 4 C -1.3947 -2.167 0.0 0
M  V30 5 C 2.4667 -1.3486 0.0 0
M  V30 6 C -2.7434 -1.3486 0.0 0
M  V30 7 C 3.7231 -2.0402 0.0 0
M  V30 8 C -4.092 -2.0402 0.0 0
M  V30 9 C 4.9796 -1.2218 0.0 0
M  V30 10 C -5.4406 -1.2218 0.0 0
M  V30 11 C 6.236 -1.9365 0.0 0
M  V30 12 C -6.7893 -1.9365 0.0 0
M  V30 13 C 7.4924 -1.1181 0.0 0
M  V30 END ATOM
M  V30 BEGIN BOND
M  V30 1 2 1 2
M  V30 2 1 2 3
M  V30 3 1 2 4
M  V30 4 1 3 5
M  V30 5 1 4 6
M  V30 6 1 5 7
M  V30 7 1 6 8
M  V30 8 1 7 9
M  V30 9 1 8 10
M  V30 10 1 9 11
M  V30 11 1 10 12
M  V30 12 1 11 13
M  V30 END BOND
M  V30 END CTAB
M  END
>  <Molecule Name>
pentyl hexanoate

>  <Molecule Name 2>
pentyl hexanoate

>  <Database>
Essential Oil Database

>  <InChI>
InChI=1S/C11H22O2/c1-3-5-7-9-11(12)13-10-8-6-4-2/h3-10H2,1-2H3

>  <InChI-Key>
WRFZKAGPPQGDDQ-UHFFFAOYSA-N

>  <Smiles>
CCCCCC(OCCCCC)=O

>  <Molecular Formula>
C11H22O2

$$$$
(z)-3-hexenyl butyrate
Actelion Java MolfileCreator 2.0

  0  0  0  0  0  0              0 V3000
M  V30 BEGIN CTAB
M  V30 COUNTS 12 11 0 0 0
M  V30 BEGIN ATOM
M  V30 1 O 0.0 0.0 0.0 0
M  V30 2 C -0.0483 1.547 0.0 0
M  V30 3 O 1.1965 2.3327 0.0 0
M  V30 4 C -1.3899 2.3327 0.0 0
M  V30 5 C 2.4414 1.6075 0.0 0
M  V30 6 C -2.7315 1.6075 0.0 0
M  V30 7 C 3.6864 2.3931 0.0 0
M  V30 8 C -4.0731 2.3931 0.0 0
M  V30 9 C 4.9313 1.6679 0.0 0
M  V30 10 C 6.1762 2.4535 0.0 0
M  V30 11 C 6.1279 4.0006 0.0 0
M  V30 12 C 7.3728 4.7862 0.0 0
M  V30 END ATOM
M  V30 BEGIN BOND
M  V30 1 2 1 2
M  V30 2 1 2 3
M  V30 3 1 2 4
M  V30 4 1 3 5
M  V30 5 1 4 6
M  V30 6 1 5 7
M  V30 7 1 6 8
M  V30 8 1 7 9
M  V30 9 2 9 10
M  V30 10 1 10 11
M  V30 11 1 11 12
M  V30 END BOND
M  V30 END CTAB
M  END
>  <Molecule Name>
(z)-3-hexenyl butyrate

>  <Molecule Name 2>
(z)-3-hexenyl butyrate

>  <Database>
Essential Oil Database

>  <InChI>
InChI=1S/C10H18O2/c1-3-5-6-7-9-12-10(11)8-4-2/h5-6H,3-4,7-9H2,1-2H3/b6-5-

>  <InChI-Key>
ZCHOPXVYTWUHDS-WAYWQWQTSA-N

>  <Smiles>
CCCC(OCC/C=C\CC)=O

>  <Molecular Formula>
C10H18O2

$$$$
(z)-3-hexenyl isovalerate
Actelion Java MolfileCreator 2.0

  0  0  0  0  0  0              0 V3000
M  V30 BEGIN CTAB
M  V30 COUNTS 13 12 0 0 0
M  V30 BEGIN ATOM
M  V30 1 O 0.0 0.0 0.0 0
M  V30 2 C -0.0484 1.5512 0.0 0
M  V30 3 O 1.1998 2.339 0.0 0
M  V30 4 C -1.3937 2.339 0.0 0
M  V30 5 C 2.4481 1.6118 0.0 0
M  V30 6 C -2.7389 1.6118 0.0 0
M  V30 7 C 3.6964 2.3996 0.0 0
M  V30 8 C -4.0842 2.3996 0.0 0
M  V30 9 C -2.7874 0.1575 0.0 0
M  V30 10 C 4.9447 1.6724 0.0 0
M  V30 11 C 6.193 2.4602 0.0 0
M  V30 12 C 6.1445 4.0115 0.0 0
M  V30 13 C 7.3928 4.7993 0.0 0
M  V30 END ATOM
M  V30 BEGIN BOND
M  V30 1 2 1 2
M  V30 2 1 2 3
M  V30 3 1 2 4
M  V30 4 1 3 5
M  V30 5 1 4 6
M  V30 6 1 5 7
M  V30 7 1 6 8
M  V30 8 1 6 9
M  V30 9 1 7 10
M  V30 10 2 10 11
M  V30 11 1 11 12
M  V30 12 1 12 13
M  V30 END BOND
M  V30 END CTAB
M  END
>  <Molecule Name>
(z)-3-hexenyl isovalerate

>  <Molecule Name 2>
(z)-3-hexenyl isovalerate

>  <Database>
Essential Oil Database

>  <InChI>
InChI=1S/C11H20O2/c1-4-5-6-7-8-13-11(12)9-10(2)3/h5-6,10H,4,7-9H2,1-3H3/b6-5-

>  <InChI-Key>
AIQLNKITFBJPFO-WAYWQWQTSA-N

>  <Smiles>
CC/C=C\CCOC(CC(C)C)=O

>  <Molecular Formula>
C11H20O2

$$$$
(z)-3-octenol
Actelion Java MolfileCreator 2.0

  0  0  0  0  0  0              0 V3000
M  V30 BEGIN CTAB
M  V30 COUNTS 9 8 0 0 0
M  V30 BEGIN ATOM
M  V30 1 O 0.0 0.0 0.0 0
M  V30 2 C -0.7636 -1.2289 0.0 0
M  V30 3 C -2.2908 -1.1812 0.0 0
M  V30 4 C -3.0664 0.1431 0.0 0
M  V30 5 C -4.5936 0.1909 0.0 0
M  V30 6 C -5.3692 -1.038 0.0 0
M  V30 7 C -6.8964 -0.9903 0.0 0
M  V30 8 C -7.6719 -2.2192 0.0 0
M  V30 9 C -9.1992 -2.1715 0.0 0
M  V30 END ATOM
M  V30 BEGIN BOND
M  V30 1 1 1 2
M  V30 2 1 2 3
M  V30 3 1 3 4
M  V30 4 2 4 5
M  V30 5 1 5 6
M  V30 6 1 6 7
M  V30 7 1 7 8
M  V30 8 1 8 9
M  V30 END BOND
M  V30 END CTAB
M  END
>  <Molecule Name>
(z)-3-octenol

>  <Molecule Name 2>
(z)-3-octenol

>  <Database>
Essential Oil Database

>  <InChI>
InChI=1S/C8H16O/c1-2-3-4-5-6-7-8-9/h5-6,9H,2-4,7-8H2,1H3/b6-5-

>  <InChI-Key>
YDXQPTHHAPCTPP-WAYWQWQTSA-N

>  <Smiles>
CCCC/C=C\CCO

>  <Molecular Formula>
C8H16O

$$$$
(z)-4-decenal
Actelion Java MolfileCreator 2.0

  0  0  0  0  0  0              0 V3000
M  V30 BEGIN CTAB
M  V30 COUNTS 11 10 0 0 0
M  V30 BEGIN ATOM
M  V30 1 O 0.0 0.0 0.0 0
M  V30 2 C 1.2966 -0.7018 0.0 0
M  V30 3 C 1.249 -2.2007 0.0 0
M  V30 4 C 2.5457 -2.9144 0.0 0
M  V30 5 C 2.4981 -4.4133 0.0 0
M  V30 6 C 3.7947 -5.1151 0.0 0
M  V30 7 C 5.0914 -4.2824 0.0 0
M  V30 8 C 6.388 -4.9843 0.0 0
M  V30 9 C 7.6846 -4.1516 0.0 0
M  V30 10 C 8.9813 -4.8534 0.0 0
M  V30 11 C 10.2779 -4.0207 0.0 0
M  V30 END ATOM
M  V30 BEGIN BOND
M  V30 1 2 1 2
M  V30 2 1 2 3
M  V30 3 1 3 4
M  V30 4 1 4 5
M  V30 5 2 5 6
M  V30 6 1 6 7
M  V30 7 1 7 8
M  V30 8 1 8 9
M  V30 9 1 9 10
M  V30 10 1 10 11
M  V30 END BOND
M  V30 END CTAB
M  END
>  <Molecule Name>
(z)-4-decenal

>  <Molecule Name 2>
(z)-4-decenal

>  <Database>
Essential Oil Database

>  <InChI>
InChI=1S/C10H18O/c1-2-3-4-5-6-7-8-9-10-11/h6-7,10H,2-5,8-9H2,1H3/b7-6-

>  <InChI-Key>
CWRKZMLUDFBPAO-SREVYHEPSA-N

>  <Smiles>
CCCCC/C=C\CCC=O

>  <Molecular Formula>
C10H18O

$$$$
acetophenone
Actelion Java MolfileCreator 2.0

  0  0  0  0  0  0              0 V3000
M  V30 BEGIN CTAB
M  V30 COUNTS 9 9 0 0 0
M  V30 BEGIN ATOM
M  V30 1 O 0.0 0.0 0.0 0
M  V30 2 C -1.3675 -0.6896 0.0 0
M  V30 3 C -1.4142 -2.1623 0.0 0
M  V30 4 C -2.735 0.1168 0.0 0
M  V30 5 C -0.1402 -2.8519 0.0 0
M  V30 6 C -2.7817 -2.8519 0.0 0
M  V30 7 C -0.187 -4.3246 0.0 0
M  V30 8 C -2.8285 -4.3246 0.0 0
M  V30 9 C -1.5545 -5.0142 0.0 0
M  V30 END ATOM
M  V30 BEGIN BOND
M  V30 1 2 1 2
M  V30 2 1 2 3
M  V30 3 1 2 4
M  V30 4 2 3 5
M  V30 5 1 3 6
M  V30 6 1 5 7
M  V30 7 2 6 8
M  V30 8 2 7 9
M  V30 9 1 8 9
M  V30 END BOND
M  V30 END CTAB
M  END
>  <Molecule Name>
acetophenone

>  <Molecule Name 2>
acetophenone

>  <Database>
Essential Oil Database

>  <InChI>
InChI=1S/C8H8O/c1-7(9)8-5-3-2-4-6-8/h2-6H,1H3

>  <InChI-Key>
KWOLFJPFCHCOCG-UHFFFAOYSA-N

>  <Smiles>
CC(c1ccccc1)=O

>  <Molecular Formula>
C8H8O

$$$$
alpha-cedrene
Actelion Java MolfileCreator 2.0

  0  0  0  0  0  0              0 V3000
M  V30 BEGIN CTAB
M  V30 COUNTS 15 17 0 0 0
M  V30 BEGIN ATOM
M  V30 1 C 0.0 0.0 0.0 0
M  V30 2 C -0.3101 -1.4432 0.0 0
M  V30 3 C -1.2285 1.0138 0.0 0 CFG=1
M  V30 4 C 1.324 0.5725 0.0 0
M  V30 5 C -1.8369 -1.8369 0.0 0
M  V30 6 C -2.636 1.7534 0.0 0
M  V30 7 C -2.0993 0.0357 0.0 0
M  V30 8 C -3.1012 -0.7633 0.0 0 CFG=1
M  V30 9 C -3.7573 0.6798 0.0 0 CFG=1
M  V30 10 C -3.8288 2.6957 0.0 0
M  V30 11 C -1.8965 3.0416 0.0 0
M  V30 12 C -4.3298 -1.6222 0.0 0 CFG=1
M  V30 13 C -5.2721 0.5844 0.0 0
M  V30 14 C -5.6419 -0.823 0.0 0
M  V30 15 C -4.2821 -3.0416 0.0 0
M  V30 END ATOM
M  V30 BEGIN BOND
M  V30 1 2 1 2
M  V30 2 1 3 1 CFG=3
M  V30 3 1 1 4
M  V30 4 1 2 5
M  V30 5 1 3 6
M  V30 6 1 3 7
M  V30 7 1 5 8
M  V30 8 1 6 9
M  V30 9 1 6 10
M  V30 10 1 6 11
M  V30 11 1 8 12
M  V30 12 1 9 13 CFG=1
M  V30 13 1 12 14
M  V30 14 1 12 15 CFG=3
M  V30 15 1 8 7 CFG=1
M  V30 16 1 8 9
M  V30 17 1 13 14
M  V30 END BOND
M  V30 BEGIN COLLECTION
M  V30 MDLV30/STEABS ATOMS=(4 3 8 9 12)
M  V30 END COLLECTION
M  V30 END CTAB
M  END
>  <Molecule Name>
alpha-cedrene

>  <Molecule Name 2>
alpha-cedrene

>  <Database>
Essential Oil Database

>  <InChI>
InChI=1S/C15H24/c1-10-7-8-15-9-12(10)14(3,4)13(15)6-5-11(15)2/h7,11-13H,5-6,8-9H2,1-4H3/t11-,12+,13+,15+/m1/s1

>  <InChI-Key>
IRAQOCYXUMOFCW-OSFYFWSMSA-N

>  <Smiles>
C[C@H](CC1)[C@]2(C3)[C@@H]1C(C)(C)[C@@H]3C(C)=CC2

>  <Molecular Formula>
C15H24

$$$$
ar-curcumene
Actelion Java MolfileCreator 2.0

  0  0  0  0  0  0              0 V3000
M  V30 BEGIN CTAB
M  V30 COUNTS 15 15 0 0 0
M  V30 BEGIN ATOM
M  V30 1 C 0.0 0.0 0.0 0
M  V30 2 C 1.2441 -0.7126 0.0 0
M  V30 3 C -1.3408 -0.7126 0.0 0
M  V30 4 C -0.0483 1.5461 0.0 0 CFG=2
M  V30 5 C 1.1958 -2.1622 0.0 0
M  V30 6 C -1.3891 -2.1622 0.0 0
M  V30 7 C -1.3891 2.3313 0.0 0
M  V30 8 C 1.1958 2.3313 0.0 0
M  V30 9 C -0.1449 -2.8748 0.0 0
M  V30 10 C -1.4374 3.8774 0.0 0
M  V30 11 C -0.1932 -4.3244 0.0 0
M  V30 12 C -2.7782 4.6626 0.0 0
M  V30 13 C -2.8265 6.2087 0.0 0
M  V30 14 C -4.1673 6.9939 0.0 0
M  V30 15 C -1.5823 6.9939 0.0 0
M  V30 END ATOM
M  V30 BEGIN BOND
M  V30 1 2 1 2
M  V30 2 1 1 3
M  V30 3 1 1 4
M  V30 4 1 2 5
M  V30 5 2 3 6
M  V30 6 1 4 7
M  V30 7 1 4 8 CFG=3
M  V30 8 2 5 9
M  V30 9 1 7 10
M  V30 10 1 9 11
M  V30 11 1 10 12
M  V30 12 2 12 13
M  V30 13 1 13 14
M  V30 14 1 13 15
M  V30 15 1 6 9
M  V30 END BOND
M  V30 BEGIN COLLECTION
M  V30 MDLV30/STERAC1 ATOMS=(1 4)
M  V30 END COLLECTION
M  V30 END CTAB
M  END
>  <Molecule Name>
ar-curcumene

>  <Molecule Name 2>
ar-curcumene

>  <Database>
Essential Oil Database

>  <InChI>
InChI=1S/C15H22/c1-12(2)6-5-7-14(4)15-10-8-13(3)9-11-15/h6,8-11,14H,5,7H2,1-4H3/t14-/m0/s1

>  <InChI-Key>
VMYXUZSZMNBRCN-AWEZNQCLSA-N

>  <Smiles>
CC(CCC=C(C)C)c1ccc(C)cc1

>  <Molecular Formula>
C15H22

$$$$
benzyl salicylate
Actelion Java MolfileCreator 2.0

  0  0  0  0  0  0              0 V3000
M  V30 BEGIN CTAB
M  V30 COUNTS 17 18 0 0 0
M  V30 BEGIN ATOM
M  V30 1 O 0.0 0.0 0.0 0
M  V30 2 C 1.2606 -0.7343 0.0 0
M  V30 3 O 2.5212 0.0489 0.0 0
M  V30 4 C 1.2116 -2.203 0.0 0
M  V30 5 C 2.4722 1.6155 0.0 0
M  V30 6 C -0.1468 -2.9373 0.0 0
M  V30 7 C 2.4722 -2.9373 0.0 0
M  V30 8 C 3.7329 2.411 0.0 0
M  V30 9 O -1.5053 -2.1418 0.0 0
M  V30 10 C -0.1958 -4.406 0.0 0
M  V30 11 C 2.4233 -4.406 0.0 0
M  V30 12 C 3.6839 3.9776 0.0 0
M  V30 13 C 4.9935 1.6889 0.0 0
M  V30 14 C 1.0647 -5.1281 0.0 0
M  V30 15 C 4.9445 4.7732 0.0 0
M  V30 16 C 6.2541 2.4845 0.0 0
M  V30 17 C 6.2051 4.0511 0.0 0
M  V30 END ATOM
M  V30 BEGIN BOND
M  V30 1 2 1 2
M  V30 2 1 2 3
M  V30 3 1 2 4
M  V30 4 1 3 5
M  V30 5 2 4 6
M  V30 6 1 4 7
M  V30 7 1 5 8
M  V30 8 1 6 9
M  V30 9 1 6 10
M  V30 10 2 7 11
M  V30 11 2 8 12
M  V30 12 1 8 13
M  V30 13 2 10 14
M  V30 14 1 12 15
M  V30 15 2 13 16
M  V30 16 2 15 17
M  V30 17 1 11 14
M  V30 18 1 16 17
M  V30 END BOND
M  V30 END CTAB
M  END
>  <Molecule Name>
benzyl salicylate

>  <Molecule Name 2>
benzyl salicylate

>  <Database>
Essential Oil Database

>  <InChI>
InChI=1S/C14H12O3/c15-13-9-5-4-8-12(13)14(16)17-10-11-6-2-1-3-7-11/h1-9,15H,10H2

>  <InChI-Key>
ZCTQGTTXIYCGGC-UHFFFAOYSA-N

>  <Smiles>
Oc(cccc1)c1C(OCc1ccccc1)=O

>  <Molecular Formula>
C14H12O3

$$$$
gamma-curcumene
Actelion Java MolfileCreator 2.0

  0  0  0  0  0  0              0 V3000
M  V30 BEGIN CTAB
M  V30 COUNTS 15 15 0 0 0
M  V30 BEGIN ATOM
M  V30 1 C 0.0 0.0 0.0 0
M  V30 2 C 1.2441 -0.7126 0.0 0
M  V30 3 C -0.0483 1.5461 0.0 0 CFG=1
M  V30 4 C -1.3408 -0.7126 0.0 0
M  V30 5 C 1.1958 -2.1622 0.0 0
M  V30 6 C -1.3891 2.3313 0.0 0
M  V30 7 C 1.1958 2.3313 0.0 0
M  V30 8 C -1.3891 -2.1622 0.0 0
M  V30 9 C -0.1449 -2.8748 0.0 0
M  V30 10 C -1.4374 3.8774 0.0 0
M  V30 11 C -0.1932 -4.3244 0.0 0
M  V30 12 C -2.7782 4.6626 0.0 0
M  V30 13 C -2.8265 6.2087 0.0 0
M  V30 14 C -4.1673 6.9939 0.0 0
M  V30 15 C -1.5823 6.9939 0.0 0
M  V30 END ATOM
M  V30 BEGIN BOND
M  V30 1 2 1 2
M  V30 2 1 1 3
M  V30 3 1 1 4
M  V30 4 1 2 5
M  V30 5 1 3 6
M  V30 6 1 3 7 CFG=1
M  V30 7 1 4 8
M  V30 8 2 5 9
M  V30 9 1 6 10
M  V30 10 1 9 11
M  V30 11 1 10 12
M  V30 12 2 12 13
M  V30 13 1 13 14
M  V30 14 1 13 15
M  V30 15 1 8 9
M  V30 END BOND
M  V30 BEGIN COLLECTION
M  V30 MDLV30/STEABS ATOMS=(1 3)
M  V30 END COLLECTION
M  V30 END CTAB
M  END
>  <Molecule Name>
gamma-curcumene

>  <Molecule Name 2>
gamma-curcumene

>  <Database>
Essential Oil Database

>  <InChI>
InChI=1S/C15H24/c1-12(2)6-5-7-14(4)15-10-8-13(3)9-11-15/h6,8,10,14H,5,7,9,11H2,1-4H3/t14-/m1/s1

>  <InChI-Key>
NGIVKZGKEPRIGG-CQSZACIVSA-N

>  <Smiles>
C[C@H](CCC=C(C)C)C1=CC=C(C)CC1

>  <Molecular Formula>
C15H24

$$$$
bis-(1methylpropenyl) disulfide
Actelion Java MolfileCreator 2.0

  0  0  0  0  0  0              0 V3000
M  V30 BEGIN CTAB
M  V30 COUNTS 10 9 0 0 0
M  V30 BEGIN ATOM
M  V30 1 S 0.0 0.0 0.0 0
M  V30 2 S -1.5449 0.0482 0.0 0
M  V30 3 C 0.7121 1.3397 0.0 0
M  V30 4 C -2.3294 -1.1949 0.0 0
M  V30 5 C 2.1604 1.388 0.0 0
M  V30 6 C -0.0603 2.6794 0.0 0
M  V30 7 C -3.8743 -1.1466 0.0 0
M  V30 8 C -1.6173 -2.438 0.0 0
M  V30 9 C 2.8846 2.7277 0.0 0
M  V30 10 C -4.6589 -2.3898 0.0 0
M  V30 END ATOM
M  V30 BEGIN BOND
M  V30 1 1 1 2
M  V30 2 1 1 3
M  V30 3 1 2 4
M  V30 4 2 3 5 CFG=2
M  V30 5 1 3 6
M  V30 6 2 4 7 CFG=2
M  V30 7 1 4 8
M  V30 8 1 5 9
M  V30 9 1 7 10
M  V30 END BOND
M  V30 END CTAB
M  END
>  <Molecule Name>
bis-(1methylpropenyl) disulfide

>  <Molecule Name 2>
bis-(1methylpropenyl) disulfide

>  <Database>
Essential Oil Database

>  <InChI>
InChI=1S/C8H14S2/c1-5-7(3)9-10-8(4)6-2/h5-6H,1-4H3

>  <InChI-Key>
SEUXDSIHTAQGIQ-UHFFFAOYSA-N

>  <Smiles>
CC=C(C)SSC(C)=CC

>  <Molecular Formula>
C8H14S2

$$$$
bis-(1-methylpropyl) disulfide
Actelion Java MolfileCreator 2.0

  0  0  0  0  0  0              0 V3000
M  V30 BEGIN CTAB
M  V30 COUNTS 10 9 0 0 0
M  V30 BEGIN ATOM
M  V30 1 S 0.0 0.0 0.0 0
M  V30 2 S -1.339 0.7841 0.0 0
M  V30 3 C 1.2425 0.7841 0.0 0
M  V30 4 C -2.678 0.0723 0.0 0
M  V30 5 C 2.485 0.0723 0.0 0
M  V30 6 C 1.1942 2.3282 0.0 0
M  V30 7 C -4.017 0.8564 0.0 0
M  V30 8 C -2.7263 -1.3752 0.0 0
M  V30 9 C 3.7275 0.8564 0.0 0
M  V30 10 C -5.3561 0.1447 0.0 0
M  V30 END ATOM
M  V30 BEGIN BOND
M  V30 1 1 1 2
M  V30 2 1 1 3
M  V30 3 1 2 4
M  V30 4 1 3 5
M  V30 5 1 3 6
M  V30 6 1 4 7
M  V30 7 1 4 8
M  V30 8 1 5 9
M  V30 9 1 7 10
M  V30 END BOND
M  V30 END CTAB
M  END
>  <Molecule Name>
bis-(1-methylpropyl) disulfide

>  <Molecule Name 2>
bis-(1-methylpropyl) disulfide

>  <Database>
Essential Oil Database

>  <InChI>
InChI=1S/C8H18S2/c1-5-7(3)9-10-8(4)6-2/h7-8H,5-6H2,1-4H3

>  <InChI-Key>
QTWKINKGAHTPFJ-UHFFFAOYSA-N

>  <Smiles>
CCC(C)SSC(C)CC

>  <Molecular Formula>
C8H18S2

$$$$
2-methylcrotonic acid
Actelion Java MolfileCreator 2.0

  0  0  0  0  0  0              0 V3000
M  V30 BEGIN CTAB
M  V30 COUNTS 7 6 0 0 0
M  V30 BEGIN ATOM
M  V30 1 O 0.0 0.0 0.0 0
M  V30 2 C 1.4642 0.0464 0.0 0
M  V30 3 O 2.1498 -1.2201 0.0 0
M  V30 4 C 2.1498 1.4061 0.0 0
M  V30 5 C 3.614 1.4525 0.0 0
M  V30 6 C 1.3363 2.7657 0.0 0
M  V30 7 C 4.2996 2.8122 0.0 0
M  V30 END ATOM
M  V30 BEGIN BOND
M  V30 1 2 1 2
M  V30 2 1 2 3
M  V30 3 1 2 4
M  V30 4 2 4 5 CFG=2
M  V30 5 1 4 6
M  V30 6 1 5 7
M  V30 END BOND
M  V30 END CTAB
M  END
>  <Molecule Name>
2-methylcrotonic acid

>  <Molecule Name 2>
2-methylcrotonic acid

>  <Database>
Essential Oil Database

>  <InChI>
InChI=1S/C5H8O2/c1-3-4(2)5(6)7/h3H,1-2H3,(H,6,7)

>  <InChI-Key>
UIERETOOQGIECD-UHFFFAOYSA-N

>  <Smiles>
CC=C(C)C(O)=O

>  <Molecular Formula>
C5H8O2

$$$$
2-methylhexanoic acid
Actelion Java MolfileCreator 2.0

  0  0  0  0  0  0              0 V3000
M  V30 BEGIN CTAB
M  V30 COUNTS 9 8 0 0 0
M  V30 BEGIN ATOM
M  V30 1 O 0.0 0.0 0.0 0
M  V30 2 C -0.0471 -1.4866 0.0 0
M  V30 3 O -1.4276 -2.1945 0.0 0
M  V30 4 C 1.2388 -2.1945 0.0 0 CFG=2
M  V30 5 C 2.5249 -1.3568 0.0 0
M  V30 6 C 1.1916 -3.6812 0.0 0
M  V30 7 C 3.811 -2.0647 0.0 0
M  V30 8 C 5.097 -1.227 0.0 0
M  V30 9 C 6.3831 -1.935 0.0 0
M  V30 END ATOM
M  V30 BEGIN BOND
M  V30 1 2 1 2
M  V30 2 1 2 3
M  V30 3 1 2 4
M  V30 4 1 4 5
M  V30 5 1 4 6 CFG=3
M  V30 6 1 5 7
M  V30 7 1 7 8
M  V30 8 1 8 9
M  V30 END BOND
M  V30 BEGIN COLLECTION
M  V30 MDLV30/STERAC1 ATOMS=(1 4)
M  V30 END COLLECTION
M  V30 END CTAB
M  END
>  <Molecule Name>
2-methylhexanoic acid

>  <Molecule Name 2>
2-methylhexanoic acid

>  <Database>
Essential Oil Database

>  <InChI>
InChI=1S/C7H14O2/c1-3-4-5-6(2)7(8)9/h6H,3-5H2,1-2H3,(H,8,9)/t6-/m0/s1

>  <InChI-Key>
CVKMFSAVYPAZTQ-LURJTMIESA-N

>  <Smiles>
CCCCC(C)C(O)=O

>  <Molecular Formula>
C7H14O2

$$$$
allo-aromadendrene
Actelion Java MolfileCreator 2.0

  0  0  0  0  0  0              0 V3000
M  V30 BEGIN CTAB
M  V30 COUNTS 15 17 0 0 0
M  V30 BEGIN ATOM
M  V30 1 C 0.0 0.0 0.0 0
M  V30 2 C 1.0237 1.0968 0.0 0
M  V30 3 C 0.4509 -1.3771 0.0 0 CFG=2
M  V30 4 C -1.4746 0.5727 0.0 0
M  V30 5 C -0.4021 -2.5958 0.0 0
M  V30 6 C 1.8646 -1.7183 0.0 0
M  V30 7 C -2.803 -0.1706 0.0 0
M  V30 8 C 0.4996 -3.7049 0.0 0 CFG=1
M  V30 9 C -1.9621 -2.7055 0.0 0
M  V30 10 C 1.9133 -3.1808 0.0 0
M  V30 11 C -3.0346 -1.6208 0.0 0
M  V30 12 C 0.0609 -5.1186 0.0 0
M  V30 13 C -3.4733 -3.0467 0.0 0
M  V30 14 C -5.0089 -3.2539 0.0 0
M  V30 15 C -3.8023 -4.4848 0.0 0
M  V30 END ATOM
M  V30 BEGIN BOND
M  V30 1 2 1 2
M  V30 2 1 3 1 CFG=1
M  V30 3 1 1 4
M  V30 4 1 3 5
M  V30 5 1 3 6
M  V30 6 1 4 7
M  V30 7 1 5 8
M  V30 8 1 5 9
M  V30 9 1 6 10
M  V30 10 1 7 11
M  V30 11 1 8 12 CFG=1
M  V30 12 1 9 13
M  V30 13 1 13 14
M  V30 14 1 13 15
M  V30 15 1 8 10
M  V30 16 1 9 11
M  V30 17 1 11 13
M  V30 END BOND
M  V30 BEGIN COLLECTION
M  V30 MDLV30/STEABS ATOMS=(2 3 8)
M  V30 END COLLECTION
M  V30 END CTAB
M  END
>  <Molecule Name>
allo-aromadendrene

>  <Molecule Name 2>
allo-aromadendrene

>  <Database>
Essential Oil Database

>  <InChI>
InChI=1S/C15H24/c1-9-6-8-12-14(15(12,3)4)13-10(2)5-7-11(9)13/h10-14H,1,5-8H2,2-4H3/t10-,11-,12?,13?,14?/m1/s1

>  <InChI-Key>
ITYNGVSTWVVPIC-UJPKRVMBSA-N

>  <Smiles>
C[C@H](CC1)C(C2C(C)(C)C2CC2)[C@H]1C2=C

>  <Molecular Formula>
C15H24

$$$$
beta-bisabolene
Actelion Java MolfileCreator 2.0

  0  0  0  0  0  0              0 V3000
M  V30 BEGIN CTAB
M  V30 COUNTS 15 15 0 0 0
M  V30 BEGIN ATOM
M  V30 1 C 0.0 0.0 0.0 0
M  V30 2 C -1.323 0.7628 0.0 0
M  V30 3 C 1.2277 0.7628 0.0 0
M  V30 4 C -0.0476 -1.4303 0.0 0
M  V30 5 C -1.3707 2.2886 0.0 0
M  V30 6 C 1.18 2.2886 0.0 0
M  V30 7 C -0.143 3.0514 0.0 0 CFG=2
M  V30 8 C -0.1907 4.5772 0.0 0
M  V30 9 C 1.037 5.34 0.0 0
M  V30 10 C -1.5138 5.34 0.0 0
M  V30 11 C -1.5614 6.8658 0.0 0
M  V30 12 C -2.8845 7.6405 0.0 0
M  V30 13 C -2.9322 9.1663 0.0 0
M  V30 14 C -4.2553 9.9411 0.0 0
M  V30 15 C -1.7045 9.9411 0.0 0
M  V30 END ATOM
M  V30 BEGIN BOND
M  V30 1 2 1 2
M  V30 2 1 1 3
M  V30 3 1 1 4
M  V30 4 1 2 5
M  V30 5 1 3 6
M  V30 6 1 5 7
M  V30 7 1 7 8 CFG=1
M  V30 8 2 8 9
M  V30 9 1 8 10
M  V30 10 1 10 11
M  V30 11 1 11 12
M  V30 12 2 12 13
M  V30 13 1 13 14
M  V30 14 1 13 15
M  V30 15 1 6 7
M  V30 END BOND
M  V30 BEGIN COLLECTION
M  V30 MDLV30/STERAC1 ATOMS=(1 7)
M  V30 END COLLECTION
M  V30 END CTAB
M  END
>  <Molecule Name>
beta-bisabolene

>  <Molecule Name 2>
beta-bisabolene

>  <Database>
Essential Oil Database

>  <InChI>
InChI=1S/C15H24/c1-12(2)6-5-7-14(4)15-10-8-13(3)9-11-15/h6,8,15H,4-5,7,9-11H2,1-3H3/t15-/m1/s1

>  <InChI-Key>
XZRVRYFILCSYSP-OAHLLOKOSA-N

>  <Smiles>
CC(C)=CCCC(C1CC=C(C)CC1)=C

>  <Molecular Formula>
C15H24

$$$$
elemol
Actelion Java MolfileCreator 2.0

  0  0  0  0  0  0              0 V3000
M  V30 BEGIN CTAB
M  V30 COUNTS 16 16 0 0 0
M  V30 BEGIN ATOM
M  V30 1 O 0.0 0.0 0.0 0
M  V30 2 C -1.5251 0.0476 0.0 0
M  V30 3 C -1.5727 1.5727 0.0 0 CFG=1
M  V30 4 C -1.5727 -1.3821 0.0 0
M  V30 5 C -3.0502 0.0953 0.0 0
M  V30 6 C -0.3455 2.3472 0.0 0
M  V30 7 C -2.8953 2.3472 0.0 0
M  V30 8 C -0.3931 3.8724 0.0 0 CFG=1
M  V30 9 C -2.943 3.8724 0.0 0
M  V30 10 C 0.834 4.6469 0.0 0
M  V30 11 C -1.7157 4.6469 0.0 0 CFG=1
M  V30 12 C 2.0613 3.9439 0.0 0
M  V30 13 C 0.7863 6.172 0.0 0
M  V30 14 C -1.0485 5.9933 0.0 0
M  V30 15 C -2.4783 5.9933 0.0 0
M  V30 16 C -1.8587 7.292 0.0 0
M  V30 END ATOM
M  V30 BEGIN BOND
M  V30 1 1 1 2
M  V30 2 1 3 2 CFG=3
M  V30 3 1 2 4
M  V30 4 1 2 5
M  V30 5 1 3 6
M  V30 6 1 3 7
M  V30 7 1 6 8
M  V30 8 1 7 9
M  V30 9 1 8 10 CFG=3
M  V30 10 1 8 11
M  V30 11 2 10 12
M  V30 12 1 10 13
M  V30 13 1 11 14
M  V30 14 1 11 15 CFG=3
M  V30 15 2 14 16
M  V30 16 1 9 11
M  V30 END BOND
M  V30 BEGIN COLLECTION
M  V30 MDLV30/STEABS ATOMS=(3 3 8 11)
M  V30 END COLLECTION
M  V30 END CTAB
M  END
>  <Molecule Name>
elemol

>  <Molecule Name 2>
elemol

>  <Database>
Essential Oil Database

>  <InChI>
InChI=1S/C15H26O/c1-7-15(6)9-8-12(14(4,5)16)10-13(15)11(2)3/h7,12-13,16H,1-2,8-10H2,3-6H3/t12-,13+,15-/m1/s1

>  <InChI-Key>
GFJIQNADMLPFOW-VNHYZAJKSA-N

>  <Smiles>
CC(C)([C@H](CC[C@@]1(C)C=C)C[C@H]1C(C)=C)O

>  <Molecular Formula>
C15H26O

$$$$
ferulyl angelate
Actelion Java MolfileCreator 2.0

  0  0  0  0  0  0              0 V3000
M  V30 BEGIN CTAB
M  V30 COUNTS 20 20 0 0 0
M  V30 BEGIN ATOM
M  V30 1 O 0.0 0.0 0.0 0
M  V30 2 C -1.3147 -0.6988 0.0 0
M  V30 3 O -2.6295 0.071 0.0 0
M  V30 4 C -1.3621 -2.1202 0.0 0
M  V30 5 C -2.6769 1.5872 0.0 0
M  V30 6 C -2.6769 -2.819 0.0 0
M  V30 7 C -0.1421 -2.819 0.0 0
M  V30 8 O -1.4569 2.3571 0.0 0
M  V30 9 C -3.9917 2.3571 0.0 0
M  V30 10 C -3.9917 -2.0491 0.0 0
M  V30 11 C -4.039 3.8732 0.0 0
M  V30 12 C -5.3538 4.6431 0.0 0
M  V30 13 C -5.4012 6.1593 0.0 0
M  V30 14 C -6.6686 3.9443 0.0 0
M  V30 15 C -6.716 6.9292 0.0 0
M  V30 16 C -7.9834 4.7142 0.0 0
M  V30 17 O -6.7634 8.4453 0.0 0
M  V30 18 C -8.0307 6.2303 0.0 0
M  V30 19 C -8.0781 9.2152 0.0 0
M  V30 20 O -9.3455 7.0002 0.0 0
M  V30 END ATOM
M  V30 BEGIN BOND
M  V30 1 2 1 2
M  V30 2 1 2 3
M  V30 3 1 2 4
M  V30 4 1 3 5
M  V30 5 2 4 6
M  V30 6 1 4 7
M  V30 7 2 5 8
M  V30 8 1 5 9
M  V30 9 1 6 10
M  V30 10 2 9 11 CFG=2
M  V30 11 1 11 12
M  V30 12 2 12 13
M  V30 13 1 12 14
M  V30 14 1 13 15
M  V30 15 2 14 16
M  V30 16 1 15 17
M  V30 17 2 15 18
M  V30 18 1 17 19
M  V30 19 1 18 20
M  V30 20 1 16 18
M  V30 END BOND
M  V30 END CTAB
M  END
>  <Molecule Name>
ferulyl angelate

>  <Molecule Name 2>
ferulyl angelate

>  <Database>
Essential Oil Database

>  <InChI>
InChI=1S/C15H16O5/c1-4-10(2)15(18)20-14(17)8-6-11-5-7-12(16)13(9-11)19-3/h4-9,16H,1-3H3/b8-6?,10-4-

>  <InChI-Key>
NCLWNYWMZDVXMC-XKGLAPAGSA-N

>  <Smiles>
C/C=C(/C)\C(OC(C=Cc(cc1)cc(OC)c1O)=O)=O

>  <Molecular Formula>
C15H16O5

$$$$
ferulyl isovalerate
Actelion Java MolfileCreator 2.0

  0  0  0  0  0  0              0 V3000
M  V30 BEGIN CTAB
M  V30 COUNTS 20 20 0 0 0
M  V30 BEGIN ATOM
M  V30 1 O 0.0 0.0 0.0 0
M  V30 2 C -0.0485 1.5545 0.0 0
M  V30 3 O -1.3966 2.3439 0.0 0
M  V30 4 C 1.2023 2.3439 0.0 0
M  V30 5 C -2.7447 1.6152 0.0 0
M  V30 6 C 2.4532 1.6152 0.0 0
M  V30 7 O -2.7933 0.1578 0.0 0
M  V30 8 C -4.0928 2.4047 0.0 0
M  V30 9 C 3.7042 2.4047 0.0 0
M  V30 10 C -5.4409 1.676 0.0 0
M  V30 11 C 4.9551 1.676 0.0 0
M  V30 12 C 3.6556 3.9592 0.0 0
M  V30 13 C -6.789 2.4654 0.0 0
M  V30 14 C -5.4895 0.2186 0.0 0
M  V30 15 C 6.2061 2.4654 0.0 0
M  V30 16 C 4.9065 4.7487 0.0 0
M  V30 17 O 7.457 1.7367 0.0 0
M  V30 18 C 6.1575 4.02 0.0 0
M  V30 19 C 8.7079 2.5261 0.0 0
M  V30 20 O 7.4084 4.8094 0.0 0
M  V30 END ATOM
M  V30 BEGIN BOND
M  V30 1 2 1 2
M  V30 2 1 2 3
M  V30 3 1 2 4
M  V30 4 1 3 5
M  V30 5 2 4 6 CFG=2
M  V30 6 2 5 7
M  V30 7 1 5 8
M  V30 8 1 6 9
M  V30 9 1 8 10
M  V30 10 2 9 11
M  V30 11 1 9 12
M  V30 12 1 10 13
M  V30 13 1 10 14
M  V30 14 1 11 15
M  V30 15 2 12 16
M  V30 16 1 15 17
M  V30 17 2 15 18
M  V30 18 1 17 19
M  V30 19 1 18 20
M  V30 20 1 16 18
M  V30 END BOND
M  V30 END CTAB
M  END
>  <Molecule Name>
ferulyl isovalerate

>  <Molecule Name 2>
ferulyl isovalerate

>  <Database>
Essential Oil Database

>  <InChI>
InChI=1S/C15H18O5/c1-10(2)8-15(18)20-14(17)7-5-11-4-6-12(16)13(9-11)19-3/h4-7,9-10,16H,8H2,1-3H3

>  <InChI-Key>
GSHUQRTVHSOGMY-UHFFFAOYSA-N

>  <Smiles>
CC(C)CC(OC(C=Cc(cc1)cc(OC)c1O)=O)=O

>  <Molecular Formula>
C15H18O5

$$$$
gamma-eudesmol
Actelion Java MolfileCreator 2.0

  0  0  0  0  0  0              0 V3000
M  V30 BEGIN CTAB
M  V30 COUNTS 16 17 0 0 0
M  V30 BEGIN ATOM
M  V30 1 O 0.0 0.0 0.0 0
M  V30 2 C 0.7114 -1.242 0.0 0
M  V30 3 C -0.627 -1.9535 0.0 0 CFG=1
M  V30 4 C 1.9535 -0.4582 0.0 0
M  V30 5 C 1.4229 -2.4841 0.0 0
M  V30 6 C -1.9656 -1.1576 0.0 0
M  V30 7 C -0.6753 -3.4006 0.0 0
M  V30 8 C -3.3041 -1.8691 0.0 0
M  V30 9 C -2.0138 -4.1242 0.0 0
M  V30 10 C -4.6427 -1.0732 0.0 0
M  V30 11 C -3.3524 -3.3162 0.0 0 CFG=1
M  V30 12 C -5.9813 -1.7847 0.0 0
M  V30 13 C -4.6909 0.4703 0.0 0
M  V30 14 C -4.6909 -4.0397 0.0 0
M  V30 15 C -3.4006 -4.7633 0.0 0
M  V30 16 C -6.0295 -3.2318 0.0 0
M  V30 END ATOM
M  V30 BEGIN BOND
M  V30 1 1 1 2
M  V30 2 1 3 2 CFG=3
M  V30 3 1 2 4
M  V30 4 1 2 5
M  V30 5 1 3 6
M  V30 6 1 3 7
M  V30 7 1 6 8
M  V30 8 1 7 9
M  V30 9 2 8 10
M  V30 10 1 8 11
M  V30 11 1 10 12
M  V30 12 1 10 13
M  V30 13 1 11 14
M  V30 14 1 11 15 CFG=3
M  V30 15 1 12 16
M  V30 16 1 9 11
M  V30 17 1 14 16
M  V30 END BOND
M  V30 BEGIN COLLECTION
M  V30 MDLV30/STEABS ATOMS=(2 3 11)
M  V30 END COLLECTION
M  V30 END CTAB
M  END
>  <Molecule Name>
gamma-eudesmol

>  <Molecule Name 2>
gamma-eudesmol

>  <Database>
Essential Oil Database

>  <InChI>
InChI=1S/C15H26O/c1-11-6-5-8-15(4)9-7-12(10-13(11)15)14(2,3)16/h12,16H,5-10H2,1-4H3/t12-,15-/m1/s1

>  <InChI-Key>
WMOPMQRJLLIEJV-IUODEOHRSA-N

>  <Smiles>
CC(C)([C@H]1CC2=C(C)CCC[C@]2(C)CC1)O

>  <Molecular Formula>
C15H26O

$$$$
methyl-2,3,6-trimethyl benzoate
Actelion Java MolfileCreator 2.0

  0  0  0  0  0  0              0 V3000
M  V30 BEGIN CTAB
M  V30 COUNTS 13 13 0 0 0
M  V30 BEGIN ATOM
M  V30 1 O 0.0 0.0 0.0 0
M  V30 2 C 1.2658 -0.725 0.0 0
M  V30 3 O 2.5316 0.0737 0.0 0
M  V30 4 C 1.2166 -2.1998 0.0 0
M  V30 5 C 2.4825 1.6468 0.0 0
M  V30 6 C 2.4825 -2.9249 0.0 0
M  V30 7 C -0.1474 -2.9249 0.0 0
M  V30 8 C 2.4333 -4.3996 0.0 0
M  V30 9 C 3.7483 -2.1261 0.0 0
M  V30 10 C -0.1966 -4.3996 0.0 0
M  V30 11 C -1.5116 -2.1261 0.0 0
M  V30 12 C 1.0691 -5.1247 0.0 0
M  V30 13 C 3.6991 -5.1247 0.0 0
M  V30 END ATOM
M  V30 BEGIN BOND
M  V30 1 2 1 2
M  V30 2 1 2 3
M  V30 3 1 2 4
M  V30 4 1 3 5
M  V30 5 2 4 6
M  V30 6 1 4 7
M  V30 7 1 6 8
M  V30 8 1 6 9
M  V30 9 2 7 10
M  V30 10 1 7 11
M  V30 11 2 8 12
M  V30 12 1 8 13
M  V30 13 1 10 12
M  V30 END BOND
M  V30 END CTAB
M  END
>  <Molecule Name>
methyl-2,3,6-trimethyl benzoate

>  <Molecule Name 2>
methyl-2,3,6-trimethyl benzoate

>  <Database>
Essential Oil Database

>  <InChI>
InChI=1S/C11H14O2/c1-7-5-6-8(2)10(9(7)3)11(12)13-4/h5-6H,1-4H3

>  <InChI-Key>
FXODXUSRCBKOQG-UHFFFAOYSA-N

>  <Smiles>
Cc1ccc(C)c(C(OC)=O)c1C

>  <Molecular Formula>
C11H14O2

$$$$
methyl thymol
Actelion Java MolfileCreator 2.0

  0  0  0  0  0  0              0 V3000
M  V30 BEGIN CTAB
M  V30 COUNTS 12 12 0 0 0
M  V30 BEGIN ATOM
M  V30 1 O 0.0 0.0 0.0 0
M  V30 2 C 1.2733 -0.7293 0.0 0
M  V30 3 C 2.5466 0.0618 0.0 0
M  V30 4 C 1.2238 -2.2128 0.0 0
M  V30 5 C 3.8199 -0.6675 0.0 0
M  V30 6 C 2.4972 1.6442 0.0 0
M  V30 7 C 2.4972 -2.9422 0.0 0
M  V30 8 C 3.7705 -2.151 0.0 0
M  V30 9 C 1.1249 2.4477 0.0 0
M  V30 10 C 3.7705 2.4477 0.0 0
M  V30 11 C 2.4477 -4.4257 0.0 0
M  V30 12 C 5.0438 -2.8804 0.0 0
M  V30 END ATOM
M  V30 BEGIN BOND
M  V30 1 1 1 2
M  V30 2 2 2 3
M  V30 3 1 2 4
M  V30 4 1 3 5
M  V30 5 1 3 6
M  V30 6 2 4 7
M  V30 7 2 5 8
M  V30 8 1 6 9
M  V30 9 1 6 10
M  V30 10 1 7 11
M  V30 11 1 8 12
M  V30 12 1 7 8
M  V30 END BOND
M  V30 END CTAB
M  END
>  <Molecule Name>
methyl thymol

>  <Molecule Name 2>
methyl thymol

>  <Database>
Essential Oil Database

>  <InChI>
InChI=1S/C11H16O/c1-7(2)10-5-8(3)9(4)6-11(10)12/h5-7,12H,1-4H3

>  <InChI-Key>
RFRYAUSWHSKOIY-UHFFFAOYSA-N

>  <Smiles>
CC(C)c(cc(C)c(C)c1)c1O

>  <Molecular Formula>
C11H16O

$$$$
myrtenyl acetate
Actelion Java MolfileCreator 2.0

  0  0  0  0  0  0              0 V3000
M  V30 BEGIN CTAB
M  V30 COUNTS 14 15 0 0 0
M  V30 BEGIN ATOM
M  V30 1 O 0.0 0.0 0.0 0
M  V30 2 C -1.5831 0.0618 0.0 0
M  V30 3 O -2.387 -1.212 0.0 0
M  V30 4 C -2.387 1.4346 0.0 0
M  V30 5 C -1.6573 -2.4859 0.0 0
M  V30 6 C -2.4612 -3.7599 0.0 0
M  V30 7 C -1.7315 -5.0338 0.0 0
M  V30 8 C -4.0443 -3.698 0.0 0 CFG=2
M  V30 9 C -2.5354 -6.3077 0.0 0
M  V30 10 C -4.8482 -4.9719 0.0 0
M  V30 11 C -4.2298 -5.0338 0.0 0
M  V30 12 C -4.1185 -6.2458 0.0 0 CFG=1
M  V30 13 C -6.2458 -4.1804 0.0 0
M  V30 14 C -6.2458 -5.6522 0.0 0
M  V30 END ATOM
M  V30 BEGIN BOND
M  V30 1 2 1 2
M  V30 2 1 2 3
M  V30 3 1 2 4
M  V30 4 1 3 5
M  V30 5 1 5 6
M  V30 6 2 6 7
M  V30 7 1 8 6 CFG=1
M  V30 8 1 7 9
M  V30 9 1 8 10
M  V30 10 1 8 11
M  V30 11 1 12 9 CFG=1
M  V30 12 1 10 13
M  V30 13 1 10 14
M  V30 14 1 10 12
M  V30 15 1 11 12
M  V30 END BOND
M  V30 BEGIN COLLECTION
M  V30 MDLV30/STEABS ATOMS=(2 8 12)
M  V30 END COLLECTION
M  V30 END CTAB
M  END
>  <Molecule Name>
myrtenyl acetate

>  <Molecule Name 2>
myrtenyl acetate

>  <Database>
Essential Oil Database

>  <InChI>
InChI=1S/C12H18O2/c1-8(13)14-7-9-4-5-10-6-11(9)12(10,2)3/h4,10-11H,5-7H2,1-3H3/t10-,11-/m1/s1

>  <InChI-Key>
BKATZVAUANSCKN-GHMZBOCLSA-N

>  <Smiles>
CC1(C)[C@H]2C(COC(C)=O)=CC[C@@H]1C2

>  <Molecular Formula>
C12H18O2

$$$$
safranal
Actelion Java MolfileCreator 2.0

  0  0  0  0  0  0              0 V3000
M  V30 BEGIN CTAB
M  V30 COUNTS 11 11 0 0 0
M  V30 BEGIN ATOM
M  V30 1 O 0.0 0.0 0.0 0
M  V30 2 C -0.0466 -1.4706 0.0 0
M  V30 3 C 1.2255 -2.1825 0.0 0
M  V30 4 C 1.1788 -3.6532 0.0 0
M  V30 5 C 2.4977 -1.3655 0.0 0
M  V30 6 C 2.451 -4.3651 0.0 0
M  V30 7 C -0.1867 -4.3651 0.0 0
M  V30 8 C 3.7699 -2.0542 0.0 0
M  V30 9 C 1.4589 -0.1517 0.0 0
M  V30 10 C 3.4431 -0.1517 0.0 0
M  V30 11 C 3.7232 -3.5481 0.0 0
M  V30 END ATOM
M  V30 BEGIN BOND
M  V30 1 2 1 2
M  V30 2 1 2 3
M  V30 3 2 3 4
M  V30 4 1 3 5
M  V30 5 1 4 6
M  V30 6 1 4 7
M  V30 7 1 5 8
M  V30 8 1 5 9
M  V30 9 1 5 10
M  V30 10 2 6 11
M  V30 11 1 8 11
M  V30 END BOND
M  V30 END CTAB
M  END
>  <Molecule Name>
safranal

>  <Molecule Name 2>
safranal

>  <Database>
Essential Oil Database

>  <InChI>
InChI=1S/C10H14O/c1-8-5-4-6-10(2,3)9(8)7-11/h4-5,7H,6H2,1-3H3

>  <InChI-Key>
SGAWOGXMMPSZPB-UHFFFAOYSA-N

>  <Smiles>
CC1(C)C(C=O)=C(C)C=CC1

>  <Molecular Formula>
C10H14O

$$$$
trimethylbenzene
Actelion Java MolfileCreator 2.0

  0  0  0  0  0  0              0 V3000
M  V30 BEGIN CTAB
M  V30 COUNTS 9 9 0 0 0
M  V30 BEGIN ATOM
M  V30 1 C 0.0 0.0 0.0 0
M  V30 2 C 1.2516 -0.7169 0.0 0
M  V30 3 C -0.0486 1.5554 0.0 0
M  V30 4 C -1.3488 -0.7169 0.0 0
M  V30 5 C 2.5033 0.0607 0.0 0
M  V30 6 C 1.203 -2.1752 0.0 0
M  V30 7 C 1.203 2.3453 0.0 0
M  V30 8 C 2.4547 1.6162 0.0 0
M  V30 9 C 1.1544 3.9008 0.0 0
M  V30 END ATOM
M  V30 BEGIN BOND
M  V30 1 2 1 2
M  V30 2 1 1 3
M  V30 3 1 1 4
M  V30 4 1 2 5
M  V30 5 1 2 6
M  V30 6 2 3 7
M  V30 7 2 5 8
M  V30 8 1 7 9
M  V30 9 1 7 8
M  V30 END BOND
M  V30 END CTAB
M  END
>  <Molecule Name>
trimethylbenzene

>  <Molecule Name 2>
trimethylbenzene

>  <Database>
Essential Oil Database

>  <InChI>
InChI=1S/C9H12/c1-7-4-5-8(2)9(3)6-7/h4-6H,1-3H3

>  <InChI-Key>
GWHJZXXIDMPWGX-UHFFFAOYSA-N

>  <Smiles>
Cc1cc(C)c(C)cc1

>  <Molecular Formula>
C9H12

$$$$
(z)-3-hexenol
Actelion Java MolfileCreator 2.0

  0  0  0  0  0  0              0 V3000
M  V30 BEGIN CTAB
M  V30 COUNTS 7 6 0 0 0
M  V30 BEGIN ATOM
M  V30 1 O 0.0 0.0 0.0 0
M  V30 2 C -0.7575 1.3138 0.0 0
M  V30 3 C -0.0591 2.6276 0.0 0
M  V30 4 C -0.8285 3.9414 0.0 0
M  V30 5 C -2.3435 3.9887 0.0 0
M  V30 6 C -3.1128 2.7696 0.0 0
M  V30 7 C -4.6279 2.8169 0.0 0
M  V30 END ATOM
M  V30 BEGIN BOND
M  V30 1 1 1 2
M  V30 2 1 2 3
M  V30 3 1 3 4
M  V30 4 2 4 5
M  V30 5 1 5 6
M  V30 6 1 6 7
M  V30 END BOND
M  V30 END CTAB
M  END
>  <Molecule Name>
(z)-3-hexenol

>  <Molecule Name 2>
(z)-3-hexenol

>  <Database>
Essential Oil Database

>  <InChI>
InChI=1S/C6H12O/c1-2-3-4-5-6-7/h3-4,7H,2,5-6H2,1H3/b4-3-

>  <InChI-Key>
UFLHIIWVXFIJGU-ARJAWSKDSA-N

>  <Smiles>
CC/C=C\CCO

>  <Molecular Formula>
C6H12O

$$$$
dioctyl phthalate
Actelion Java MolfileCreator 2.0

  0  0  0  0  0  0              0 V3000
M  V30 BEGIN CTAB
M  V30 COUNTS 28 28 0 0 0
M  V30 BEGIN ATOM
M  V30 1 O 0.0 0.0 0.0 0
M  V30 2 C -0.5497 -1.3744 0.0 0
M  V30 3 O -2.0795 -1.6134 0.0 0
M  V30 4 C 0.3824 -2.462 0.0 0
M  V30 5 C -3.1074 -0.4302 0.0 0
M  V30 6 C 1.8166 -2.1273 0.0 0
M  V30 7 C -0.1673 -3.8364 0.0 0
M  V30 8 C -4.6372 -0.6692 0.0 0
M  V30 9 C 2.2707 -0.6573 0.0 0
M  V30 10 C 2.7488 -3.2149 0.0 0
M  V30 11 C 0.7648 -4.924 0.0 0
M  V30 12 C -5.665 0.5139 0.0 0
M  V30 13 O 3.7049 -0.3226 0.0 0
M  V30 14 O 1.2429 0.5258 0.0 0
M  V30 15 C 2.199 -4.5893 0.0 0
M  V30 16 C -7.1948 0.2748 0.0 0
M  V30 17 C 1.6971 1.9959 0.0 0
M  V30 18 C -8.2226 1.458 0.0 0
M  V30 19 C 3.1313 2.3305 0.0 0
M  V30 20 C -9.7524 1.219 0.0 0
M  V30 21 C 4.0635 1.2429 0.0 0
M  V30 22 C -10.7802 2.4022 0.0 0
M  V30 23 C 5.4977 1.5776 0.0 0
M  V30 24 C -12.31 2.1632 0.0 0
M  V30 25 C 6.4299 0.49 0.0 0
M  V30 26 C 7.8641 0.8246 0.0 0
M  V30 27 C 8.7963 -0.2629 0.0 0
M  V30 28 C 10.2305 0.0717 0.0 0
M  V30 END ATOM
M  V30 BEGIN BOND
M  V30 1 2 1 2
M  V30 2 1 2 3
M  V30 3 1 2 4
M  V30 4 1 3 5
M  V30 5 2 4 6
M  V30 6 1 4 7
M  V30 7 1 5 8
M  V30 8 1 6 9
M  V30 9 1 6 10
M  V30 10 2 7 11
M  V30 11 1 8 12
M  V30 12 2 9 13
M  V30 13 1 9 14
M  V30 14 2 10 15
M  V30 15 1 12 16
M  V30 16 1 14 17
M  V30 17 1 16 18
M  V30 18 1 17 19
M  V30 19 1 18 20
M  V30 20 1 19 21
M  V30 21 1 20 22
M  V30 22 1 21 23
M  V30 23 1 22 24
M  V30 24 1 23 25
M  V30 25 1 25 26
M  V30 26 1 26 27
M  V30 27 1 27 28
M  V30 28 1 11 15
M  V30 END BOND
M  V30 END CTAB
M  END
>  <Molecule Name>
dioctyl phthalate

>  <Molecule Name 2>
dioctyl phthalate

>  <Database>
Essential Oil Database

>  <InChI>
InChI=1S/C24H38O4/c1-3-5-7-9-11-15-19-27-23(25)21-17-13-14-18-22(21)24(26)28-20-16-12-10-8-6-4-2/h13-14,17-18H,3-12,15-16,19-20H2,1-2H3

>  <InChI-Key>
MQIUGAXCHLFZKX-UHFFFAOYSA-N

>  <Smiles>
CCCCCCCCOC(c(cccc1)c1C(OCCCCCCCC)=O)=O

>  <Molecular Formula>
C24H38O4

$$$$
alpha-chamigrene
Actelion Java MolfileCreator 2.0

  0  0  0  0  0  0              0 V3000
M  V30 BEGIN CTAB
M  V30 COUNTS 15 16 0 0 0
M  V30 BEGIN ATOM
M  V30 1 C 0.0 0.0 0.0 0
M  V30 2 C 1.4545 0.0484 0.0 0
M  V30 3 C -0.7879 -1.2485 0.0 0 CFG=1
M  V30 4 C -0.7879 1.3454 0.0 0
M  V30 5 C 2.1818 -1.2 0.0 0
M  V30 6 C -0.0606 -2.497 0.0 0
M  V30 7 C -1.5758 0.0969 0.0 0
M  V30 8 C -1.5758 -2.497 0.0 0
M  V30 9 C 1.3939 -2.4485 0.0 0
M  V30 10 C -0.1575 -3.9516 0.0 0
M  V30 11 C -1.3818 -3.2364 0.0 0
M  V30 12 C -3.1273 0.1454 0.0 0
M  V30 13 C -3.1273 -2.4485 0.0 0
M  V30 14 C -3.9031 -1.103 0.0 0
M  V30 15 C -5.4547 -1.0545 0.0 0
M  V30 END ATOM
M  V30 BEGIN BOND
M  V30 1 2 1 2
M  V30 2 1 1 3
M  V30 3 1 1 4
M  V30 4 1 2 5
M  V30 5 1 3 6 CFG=1
M  V30 6 1 3 7
M  V30 7 1 3 8
M  V30 8 1 5 9
M  V30 9 1 6 10
M  V30 10 1 6 11
M  V30 11 1 7 12
M  V30 12 1 8 13
M  V30 13 2 12 14
M  V30 14 1 14 15
M  V30 15 1 6 9
M  V30 16 1 13 14
M  V30 END BOND
M  V30 BEGIN COLLECTION
M  V30 MDLV30/STEABS ATOMS=(1 3)
M  V30 END COLLECTION
M  V30 END CTAB
M  END
>  <Molecule Name>
alpha-chamigrene

>  <Molecule Name 2>
alpha-chamigrene

>  <Database>
Essential Oil Database

>  <InChI>
InChI=1S/C15H24/c1-12-7-10-15(11-8-12)13(2)6-5-9-14(15,3)4/h6-7H,5,8-11H2,1-4H3/t15-/m1/s1

>  <InChI-Key>
SIBCECUUMHIAAM-OAHLLOKOSA-N

>  <Smiles>
CC1(C)[C@@]2(CC=C(C)CC2)C(C)=CCC1

>  <Molecular Formula>
C15H24

$$$$
lavandulol
Actelion Java MolfileCreator 2.0

  0  0  0  0  0  0              0 V3000
M  V30 BEGIN CTAB
M  V30 COUNTS 11 10 0 0 0
M  V30 BEGIN ATOM
M  V30 1 O 0.0 0.0 0.0 0
M  V30 2 C -0.7719 1.3388 0.0 0
M  V30 3 C -2.3159 1.3871 0.0 0 CFG=1
M  V30 4 C -3.0999 0.1447 0.0 0
M  V30 5 C -3.0999 2.726 0.0 0
M  V30 6 C -4.6439 0.1929 0.0 0
M  V30 7 C -2.3883 -1.0976 0.0 0
M  V30 8 C -2.3883 4.0649 0.0 0
M  V30 9 C -0.9408 4.1131 0.0 0
M  V30 10 C -0.2291 5.452 0.0 0
M  V30 11 C -0.2291 2.8707 0.0 0
M  V30 END ATOM
M  V30 BEGIN BOND
M  V30 1 1 1 2
M  V30 2 1 3 2 CFG=1
M  V30 3 1 3 4
M  V30 4 1 3 5
M  V30 5 2 4 6
M  V30 6 1 4 7
M  V30 7 1 5 8
M  V30 8 2 8 9
M  V30 9 1 9 10
M  V30 10 1 9 11
M  V30 END BOND
M  V30 BEGIN COLLECTION
M  V30 MDLV30/STERAC1 ATOMS=(1 3)
M  V30 END COLLECTION
M  V30 END CTAB
M  END
>  <Molecule Name>
lavandulol

>  <Molecule Name 2>
lavandulol

>  <Database>
Essential Oil Database

>  <InChI>
InChI=1S/C10H18O/c1-8(2)5-6-10(7-11)9(3)4/h5,10-11H,3,6-7H2,1-2,4H3/t10-/m0/s1

>  <InChI-Key>
CZVXBFUKBZRMKR-JTQLQIEISA-N

>  <Smiles>
CC(C)=CCC(CO)C(C)=C

>  <Molecular Formula>
C10H18O

$$$$
propyl valerate
Actelion Java MolfileCreator 2.0

  0  0  0  0  0  0              0 V3000
M  V30 BEGIN CTAB
M  V30 COUNTS 10 9 0 0 0
M  V30 BEGIN ATOM
M  V30 1 O 0.0 0.0 0.0 0
M  V30 2 C -0.046 -1.4516 0.0 0
M  V30 3 O 1.2097 -2.1429 0.0 0
M  V30 4 C -1.394 -2.1429 0.0 0
M  V30 5 C 2.4655 -1.3249 0.0 0
M  V30 6 C -2.742 -1.3249 0.0 0
M  V30 7 C 3.7212 -2.0161 0.0 0
M  V30 8 C -4.0899 -2.0161 0.0 0
M  V30 9 C 4.977 -1.1981 0.0 0
M  V30 10 C -5.4379 -1.1981 0.0 0
M  V30 END ATOM
M  V30 BEGIN BOND
M  V30 1 2 1 2
M  V30 2 1 2 3
M  V30 3 1 2 4
M  V30 4 1 3 5
M  V30 5 1 4 6
M  V30 6 1 5 7
M  V30 7 1 6 8
M  V30 8 1 7 9
M  V30 9 1 8 10
M  V30 END BOND
M  V30 END CTAB
M  END
>  <Molecule Name>
propyl valerate

>  <Molecule Name 2>
propyl valerate

>  <Database>
Essential Oil Database

>  <InChI>
InChI=1S/C8H16O2/c1-3-5-6-8(9)10-7-4-2/h3-7H2,1-2H3

>  <InChI-Key>
ROJKPKOYARNFNB-UHFFFAOYSA-N

>  <Smiles>
CCCCC(OCCC)=O

>  <Molecular Formula>
C8H16O2

$$$$
1-eicosene
Actelion Java MolfileCreator 2.0

  0  0  0  0  0  0              0 V3000
M  V30 BEGIN CTAB
M  V30 COUNTS 20 19 0 0 0
M  V30 BEGIN ATOM
M  V30 1 C 0.0 0.0 0.0 0
M  V30 2 C -1.3789 -0.711 0.0 0
M  V30 3 C 1.2927 -0.711 0.0 0
M  V30 4 C 2.5855 0.0861 0.0 0
M  V30 5 C 3.8783 -0.6248 0.0 0
M  V30 6 C 5.1711 0.1723 0.0 0
M  V30 7 C 6.4639 -0.5386 0.0 0
M  V30 8 C 7.7567 0.2585 0.0 0
M  V30 9 C 9.0495 -0.4524 0.0 0
M  V30 10 C 10.3423 0.3447 0.0 0
M  V30 11 C 11.6351 -0.3662 0.0 0
M  V30 12 C 12.9279 0.4309 0.0 0
M  V30 13 C 14.2207 -0.2801 0.0 0
M  V30 14 C 15.5135 0.5171 0.0 0
M  V30 15 C 16.8063 -0.1939 0.0 0
M  V30 16 C 18.0991 0.6033 0.0 0
M  V30 17 C 19.3919 -0.1077 0.0 0
M  V30 18 C 20.6847 0.6894 0.0 0
M  V30 19 C 21.9775 -0.0215 0.0 0
M  V30 20 C 23.2703 0.7756 0.0 0
M  V30 END ATOM
M  V30 BEGIN BOND
M  V30 1 2 1 2
M  V30 2 1 1 3
M  V30 3 1 3 4
M  V30 4 1 4 5
M  V30 5 1 5 6
M  V30 6 1 6 7
M  V30 7 1 7 8
M  V30 8 1 8 9
M  V30 9 1 9 10
M  V30 10 1 10 11
M  V30 11 1 11 12
M  V30 12 1 12 13
M  V30 13 1 13 14
M  V30 14 1 14 15
M  V30 15 1 15 16
M  V30 16 1 16 17
M  V30 17 1 17 18
M  V30 18 1 18 19
M  V30 19 1 19 20
M  V30 END BOND
M  V30 END CTAB
M  END
>  <Molecule Name>
1-eicosene

>  <Molecule Name 2>
1-eicosene

>  <Database>
Essential Oil Database

>  <InChI>
InChI=1S/C20H40/c1-3-5-7-9-11-13-15-17-19-20-18-16-14-12-10-8-6-4-2/h3H,1,4-20H2,2H3

>  <InChI-Key>
VAMFXQBUQXONLZ-UHFFFAOYSA-N

>  <Smiles>
CCCCCCCCCCCCCCCCCCC=C

>  <Molecular Formula>
C20H40

$$$$
1-heptadecene
Actelion Java MolfileCreator 2.0

  0  0  0  0  0  0              0 V3000
M  V30 BEGIN CTAB
M  V30 COUNTS 17 16 0 0 0
M  V30 BEGIN ATOM
M  V30 1 C 0.0 0.0 0.0 0
M  V30 2 C -1.3748 0.7948 0.0 0
M  V30 3 C 1.2889 0.7948 0.0 0
M  V30 4 C 2.5778 0.0859 0.0 0
M  V30 5 C 3.8668 0.8807 0.0 0
M  V30 6 C 5.1557 0.1718 0.0 0
M  V30 7 C 6.4447 0.9667 0.0 0
M  V30 8 C 7.7336 0.2577 0.0 0
M  V30 9 C 9.0226 1.0526 0.0 0
M  V30 10 C 10.3115 0.3437 0.0 0
M  V30 11 C 11.6005 1.1385 0.0 0
M  V30 12 C 12.8894 0.4296 0.0 0
M  V30 13 C 14.1784 1.2245 0.0 0
M  V30 14 C 15.4673 0.5155 0.0 0
M  V30 15 C 16.7563 1.3104 0.0 0
M  V30 16 C 18.0452 0.6015 0.0 0
M  V30 17 C 19.3342 1.3963 0.0 0
M  V30 END ATOM
M  V30 BEGIN BOND
M  V30 1 2 1 2
M  V30 2 1 1 3
M  V30 3 1 3 4
M  V30 4 1 4 5
M  V30 5 1 5 6
M  V30 6 1 6 7
M  V30 7 1 7 8
M  V30 8 1 8 9
M  V30 9 1 9 10
M  V30 10 1 10 11
M  V30 11 1 11 12
M  V30 12 1 12 13
M  V30 13 1 13 14
M  V30 14 1 14 15
M  V30 15 1 15 16
M  V30 16 1 16 17
M  V30 END BOND
M  V30 END CTAB
M  END
>  <Molecule Name>
1-heptadecene

>  <Molecule Name 2>
1-heptadecene

>  <Database>
Essential Oil Database

>  <InChI>
InChI=1S/C17H34/c1-3-5-7-9-11-13-15-17-16-14-12-10-8-6-4-2/h3H,1,4-17H2,2H3

>  <InChI-Key>
ADOBXTDBFNCOBN-UHFFFAOYSA-N

>  <Smiles>
CCCCCCCCCCCCCCCC=C

>  <Molecular Formula>
C17H34

$$$$
1-hexadecene
Actelion Java MolfileCreator 2.0

  0  0  0  0  0  0              0 V3000
M  V30 BEGIN CTAB
M  V30 COUNTS 16 15 0 0 0
M  V30 BEGIN ATOM
M  V30 1 C 0.0 0.0 0.0 0
M  V30 2 C -1.3782 -0.7106 0.0 0
M  V30 3 C 1.2921 -0.7106 0.0 0
M  V30 4 C 2.5842 0.0861 0.0 0
M  V30 5 C 3.8764 -0.6245 0.0 0
M  V30 6 C 5.1685 0.1722 0.0 0
M  V30 7 C 6.4606 -0.5383 0.0 0
M  V30 8 C 7.7528 0.2584 0.0 0
M  V30 9 C 9.0449 -0.4522 0.0 0
M  V30 10 C 10.3371 0.3445 0.0 0
M  V30 11 C 11.6292 -0.3661 0.0 0
M  V30 12 C 12.9213 0.4307 0.0 0
M  V30 13 C 14.2135 -0.2799 0.0 0
M  V30 14 C 15.5056 0.5168 0.0 0
M  V30 15 C 16.7978 -0.1938 0.0 0
M  V30 16 C 18.0899 0.6029 0.0 0
M  V30 END ATOM
M  V30 BEGIN BOND
M  V30 1 2 1 2
M  V30 2 1 1 3
M  V30 3 1 3 4
M  V30 4 1 4 5
M  V30 5 1 5 6
M  V30 6 1 6 7
M  V30 7 1 7 8
M  V30 8 1 8 9
M  V30 9 1 9 10
M  V30 10 1 10 11
M  V30 11 1 11 12
M  V30 12 1 12 13
M  V30 13 1 13 14
M  V30 14 1 14 15
M  V30 15 1 15 16
M  V30 END BOND
M  V30 END CTAB
M  END
>  <Molecule Name>
1-hexadecene

>  <Molecule Name 2>
1-hexadecene

>  <Database>
Essential Oil Database

>  <InChI>
InChI=1S/C16H32/c1-3-5-7-9-11-13-15-16-14-12-10-8-6-4-2/h3H,1,4-16H2,2H3

>  <InChI-Key>
GQEZCXVZFLOKMC-UHFFFAOYSA-N

>  <Smiles>
CCCCCCCCCCCCCCC=C

>  <Molecular Formula>
C16H32

$$$$
geranyl propionate
Actelion Java MolfileCreator 2.0

  0  0  0  0  0  0              0 V3000
M  V30 BEGIN CTAB
M  V30 COUNTS 15 14 0 0 0
M  V30 BEGIN ATOM
M  V30 1 O 0.0 0.0 0.0 0
M  V30 2 C -0.0492 1.5758 0.0 0
M  V30 3 O 1.2187 2.376 0.0 0
M  V30 4 C -1.4157 2.376 0.0 0
M  V30 5 C 2.4868 1.6496 0.0 0
M  V30 6 C -2.7823 1.6496 0.0 0
M  V30 7 C 3.7548 2.4499 0.0 0
M  V30 8 C 5.0229 1.7235 0.0 0
M  V30 9 C 6.2909 2.5237 0.0 0
M  V30 10 C 4.9736 0.2462 0.0 0
M  V30 11 C 7.5589 1.7974 0.0 0
M  V30 12 C 8.827 2.5976 0.0 0
M  V30 13 C 10.095 1.8712 0.0 0
M  V30 14 C 11.3631 2.6591 0.0 0
M  V30 15 C 10.0458 0.3939 0.0 0
M  V30 END ATOM
M  V30 BEGIN BOND
M  V30 1 2 1 2
M  V30 2 1 2 3
M  V30 3 1 2 4
M  V30 4 1 3 5
M  V30 5 1 4 6
M  V30 6 1 5 7
M  V30 7 2 7 8
M  V30 8 1 8 9
M  V30 9 1 8 10
M  V30 10 1 9 11
M  V30 11 1 11 12
M  V30 12 2 12 13
M  V30 13 1 13 14
M  V30 14 1 13 15
M  V30 END BOND
M  V30 END CTAB
M  END
>  <Molecule Name>
geranyl propionate

>  <Molecule Name 2>
geranyl propionate

>  <Database>
Essential Oil Database

>  <InChI>
InChI=1S/C13H22O2/c1-5-13(14)15-10-9-12(4)8-6-7-11(2)3/h7,9H,5-6,8,10H2,1-4H3/b12-9+

>  <InChI-Key>
BYCHQEILESTMQU-FMIVXFBMSA-N

>  <Smiles>
CCC(OC/C=C(\C)/CCC=C(C)C)=O

>  <Molecular Formula>
C13H22O2

$$$$
menthone
Actelion Java MolfileCreator 2.0

  0  0  0  0  0  0              0 V3000
M  V30 BEGIN CTAB
M  V30 COUNTS 11 11 0 0 0
M  V30 BEGIN ATOM
M  V30 1 O 0.0 0.0 0.0 0
M  V30 2 C 1.2556 0.7924 0.0 0
M  V30 3 C 2.5113 0.0731 0.0 0
M  V30 4 C 1.2069 2.3528 0.0 0
M  V30 5 C 2.4625 -1.3897 0.0 0
M  V30 6 C 3.767 0.8655 0.0 0
M  V30 7 C 2.4625 3.1574 0.0 0
M  V30 8 C 3.7182 -2.1212 0.0 0
M  V30 9 C 1.1093 -2.1212 0.0 0
M  V30 10 C 3.7182 2.426 0.0 0
M  V30 11 C 2.4138 4.7179 0.0 0
M  V30 END ATOM
M  V30 BEGIN BOND
M  V30 1 2 1 2
M  V30 2 1 2 3
M  V30 3 1 2 4
M  V30 4 1 3 5
M  V30 5 1 3 6
M  V30 6 1 4 7
M  V30 7 1 5 8
M  V30 8 1 5 9
M  V30 9 1 6 10
M  V30 10 1 7 11
M  V30 11 1 7 10
M  V30 END BOND
M  V30 END CTAB
M  END
>  <Molecule Name>
menthone

>  <Molecule Name 2>
menthone

>  <Database>
Essential Oil Database

>  <InChI>
InChI=1S/C10H18O/c1-7(2)9-5-4-8(3)6-10(9)11/h7-9H,4-6H2,1-3H3

>  <InChI-Key>
NFLGAXVYCFJBMK-UHFFFAOYSA-N

>  <Smiles>
CC(C)C(CCC(C)C1)C1=O

>  <Molecular Formula>
C10H18O

$$$$
methyl dodecanoate
Actelion Java MolfileCreator 2.0

  0  0  0  0  0  0              0 V3000
M  V30 BEGIN CTAB
M  V30 COUNTS 15 14 0 0 0
M  V30 BEGIN ATOM
M  V30 1 O 0.0 0.0 0.0 0
M  V30 2 C -0.0452 -1.4254 0.0 0
M  V30 3 O 1.1878 -2.1268 0.0 0
M  V30 4 C -1.3688 -2.1268 0.0 0
M  V30 5 C 2.4209 -1.3349 0.0 0
M  V30 6 C -2.6924 -1.3349 0.0 0
M  V30 7 C -4.0161 -2.0137 0.0 0
M  V30 8 C -5.3397 -1.2217 0.0 0
M  V30 9 C -6.6633 -1.9345 0.0 0
M  V30 10 C -7.9869 -1.1426 0.0 0
M  V30 11 C -9.3105 -1.8553 0.0 0
M  V30 12 C -10.6341 -1.0634 0.0 0
M  V30 13 C -11.9577 -1.7421 0.0 0
M  V30 14 C -13.2814 -0.9502 0.0 0
M  V30 15 C -14.605 -1.6516 0.0 0
M  V30 END ATOM
M  V30 BEGIN BOND
M  V30 1 2 1 2
M  V30 2 1 2 3
M  V30 3 1 2 4
M  V30 4 1 3 5
M  V30 5 1 4 6
M  V30 6 1 6 7
M  V30 7 1 7 8
M  V30 8 1 8 9
M  V30 9 1 9 10
M  V30 10 1 10 11
M  V30 11 1 11 12
M  V30 12 1 12 13
M  V30 13 1 13 14
M  V30 14 1 14 15
M  V30 END BOND
M  V30 END CTAB
M  END
>  <Molecule Name>
methyl dodecanoate

>  <Molecule Name 2>
methyl dodecanoate

>  <Database>
Essential Oil Database

>  <InChI>
InChI=1S/C13H26O2/c1-3-4-5-6-7-8-9-10-11-12-13(14)15-2/h3-12H2,1-2H3

>  <InChI-Key>
UQDUPQYQJKYHQI-UHFFFAOYSA-N

>  <Smiles>
CCCCCCCCCCCC(OC)=O

>  <Molecular Formula>
C13H26O2

$$$$
tetracosane
Actelion Java MolfileCreator 2.0

  0  0  0  0  0  0              0 V3000
M  V30 BEGIN CTAB
M  V30 COUNTS 24 23 0 0 0
M  V30 BEGIN ATOM
M  V30 1 C 0.0 0.0 0.0 0
M  V30 2 C 1.2656 -0.6961 0.0 0
M  V30 3 C -1.35 -0.6961 0.0 0
M  V30 4 C 2.5313 0.0843 0.0 0
M  V30 5 C -2.7001 0.0843 0.0 0
M  V30 6 C 3.797 -0.6117 0.0 0
M  V30 7 C -4.0502 -0.6117 0.0 0
M  V30 8 C 5.0627 0.1687 0.0 0
M  V30 9 C -5.4002 0.1687 0.0 0
M  V30 10 C 6.3284 -0.5273 0.0 0
M  V30 11 C -6.7503 -0.5273 0.0 0
M  V30 12 C 7.5941 0.2531 0.0 0
M  V30 13 C -8.1004 0.2531 0.0 0
M  V30 14 C 8.8598 -0.4429 0.0 0
M  V30 15 C -9.4504 -0.4429 0.0 0
M  V30 16 C 10.1255 0.3375 0.0 0
M  V30 17 C -10.8005 0.3375 0.0 0
M  V30 18 C 11.3911 -0.3586 0.0 0
M  V30 19 C -12.1506 -0.3586 0.0 0
M  V30 20 C 12.6568 0.4218 0.0 0
M  V30 21 C -13.5006 0.4218 0.0 0
M  V30 22 C 13.9225 -0.2742 0.0 0
M  V30 23 C -14.8507 -0.2742 0.0 0
M  V30 24 C 15.1882 0.5062 0.0 0
M  V30 END ATOM
M  V30 BEGIN BOND
M  V30 1 1 1 2
M  V30 2 1 1 3
M  V30 3 1 2 4
M  V30 4 1 3 5
M  V30 5 1 4 6
M  V30 6 1 5 7
M  V30 7 1 6 8
M  V30 8 1 7 9
M  V30 9 1 8 10
M  V30 10 1 9 11
M  V30 11 1 10 12
M  V30 12 1 11 13
M  V30 13 1 12 14
M  V30 14 1 13 15
M  V30 15 1 14 16
M  V30 16 1 15 17
M  V30 17 1 16 18
M  V30 18 1 17 19
M  V30 19 1 18 20
M  V30 20 1 19 21
M  V30 21 1 20 22
M  V30 22 1 21 23
M  V30 23 1 22 24
M  V30 END BOND
M  V30 END CTAB
M  END
>  <Molecule Name>
tetracosane

>  <Molecule Name 2>
tetracosane

>  <Database>
Essential Oil Database

>  <InChI>
InChI=1S/C24H50/c1-3-5-7-9-11-13-15-17-19-21-23-24-22-20-18-16-14-12-10-8-6-4-2/h3-24H2,1-2H3

>  <InChI-Key>
POOSGDOYLQNASK-UHFFFAOYSA-N

>  <Smiles>
CCCCCCCCCCCCCCCCCCCCCCCC

>  <Molecular Formula>
C24H50

$$$$
gamma-himachalene
Actelion Java MolfileCreator 2.0

  0  0  0  0  0  0              0 V3000
M  V30 BEGIN CTAB
M  V30 COUNTS 15 16 0 0 0
M  V30 BEGIN ATOM
M  V30 1 C 0.0 0.0 0.0 0
M  V30 2 C 1.4234 -0.2846 0.0 0
M  V30 3 C -1.2217 -0.8896 0.0 0
M  V30 4 C -0.3795 1.5183 0.0 0
M  V30 5 C 2.0284 -1.5895 0.0 0
M  V30 6 C -1.2692 -2.3486 0.0 0
M  V30 7 C -2.574 -0.0948 0.0 0
M  V30 8 C 1.3285 -2.8943 0.0 0
M  V30 9 C -2.6215 -3.0722 0.0 0
M  V30 10 C -0.1423 -3.2383 0.0 0
M  V30 11 C -3.9263 -0.7947 0.0 0
M  V30 12 C -3.9738 -2.2656 0.0 0
M  V30 13 C 0.1779 -4.6499 0.0 0
M  V30 14 C -1.1506 -4.3415 0.0 0
M  V30 15 C -5.326 -2.9892 0.0 0
M  V30 END ATOM
M  V30 BEGIN BOND
M  V30 1 2 1 2
M  V30 2 1 1 3
M  V30 3 1 1 4
M  V30 4 1 2 5
M  V30 5 1 3 6
M  V30 6 1 3 7
M  V30 7 1 5 8
M  V30 8 1 6 9
M  V30 9 1 6 10
M  V30 10 1 7 11
M  V30 11 2 9 12
M  V30 12 1 10 13
M  V30 13 1 10 14
M  V30 14 1 12 15
M  V30 15 1 8 10
M  V30 16 1 11 12
M  V30 END BOND
M  V30 END CTAB
M  END
>  <Molecule Name>
gamma-himachalene

>  <Molecule Name 2>
gamma-himachalene

>  <Database>
Essential Oil Database

>  <InChI>
InChI=1S/C15H24/c1-11-7-8-13-12(2)6-5-9-15(3,4)14(13)10-11/h6,10,13-14H,5,7-9H2,1-4H3

>  <InChI-Key>
PUWNTRHCKNHSAT-UHFFFAOYSA-N

>  <Smiles>
CC1(C)C2C=C(C)CCC2C(C)=CCC1

>  <Molecular Formula>
C15H24

$$$$
docosane
Actelion Java MolfileCreator 2.0

  0  0  0  0  0  0              0 V3000
M  V30 BEGIN CTAB
M  V30 COUNTS 22 21 0 0 0
M  V30 BEGIN ATOM
M  V30 1 C 0.0 0.0 0.0 0
M  V30 2 C 1.2642 0.7796 0.0 0
M  V30 3 C -1.3485 0.7796 0.0 0
M  V30 4 C 2.5284 0.0842 0.0 0
M  V30 5 C -2.697 0.0842 0.0 0
M  V30 6 C 3.7926 0.8638 0.0 0
M  V30 7 C -4.0455 0.8638 0.0 0
M  V30 8 C 5.0568 0.1685 0.0 0
M  V30 9 C -5.394 0.1685 0.0 0
M  V30 10 C 6.3211 0.9481 0.0 0
M  V30 11 C -6.7425 0.9481 0.0 0
M  V30 12 C 7.5853 0.2528 0.0 0
M  V30 13 C -8.091 0.2528 0.0 0
M  V30 14 C 8.8495 1.0324 0.0 0
M  V30 15 C -9.4395 1.0324 0.0 0
M  V30 16 C 10.1137 0.3371 0.0 0
M  V30 17 C -10.788 0.3371 0.0 0
M  V30 18 C 11.3779 1.1167 0.0 0
M  V30 19 C -12.1365 1.1167 0.0 0
M  V30 20 C 12.6422 0.4214 0.0 0
M  V30 21 C -13.485 0.4214 0.0 0
M  V30 22 C 13.9064 1.201 0.0 0
M  V30 END ATOM
M  V30 BEGIN BOND
M  V30 1 1 1 2
M  V30 2 1 1 3
M  V30 3 1 2 4
M  V30 4 1 3 5
M  V30 5 1 4 6
M  V30 6 1 5 7
M  V30 7 1 6 8
M  V30 8 1 7 9
M  V30 9 1 8 10
M  V30 10 1 9 11
M  V30 11 1 10 12
M  V30 12 1 11 13
M  V30 13 1 12 14
M  V30 14 1 13 15
M  V30 15 1 14 16
M  V30 16 1 15 17
M  V30 17 1 16 18
M  V30 18 1 17 19
M  V30 19 1 18 20
M  V30 20 1 19 21
M  V30 21 1 20 22
M  V30 END BOND
M  V30 END CTAB
M  END
>  <Molecule Name>
docosane

>  <Molecule Name 2>
docosane

>  <Database>
Essential Oil Database

>  <InChI>
InChI=1S/C22H46/c1-3-5-7-9-11-13-15-17-19-21-22-20-18-16-14-12-10-8-6-4-2/h3-22H2,1-2H3

>  <InChI-Key>
HOWGUJZVBDQJKV-UHFFFAOYSA-N

>  <Smiles>
CCCCCCCCCCCCCCCCCCCCCC

>  <Molecular Formula>
C22H46

$$$$
ledol
Actelion Java MolfileCreator 2.0

  0  0  0  0  0  0              0 V3000
M  V30 BEGIN CTAB
M  V30 COUNTS 16 18 0 0 0
M  V30 BEGIN ATOM
M  V30 1 O 0.0 0.0 0.0 0
M  V30 2 C -1.4817 -0.4129 0.0 0
M  V30 3 C -1.0323 -1.7853 0.0 0 CFG=2
M  V30 4 C -2.9512 0.1578 0.0 0
M  V30 5 C -1.0444 1.0687 0.0 0
M  V30 6 C -1.8825 -2.9998 0.0 0
M  V30 7 C 0.3765 -2.1254 0.0 0
M  V30 8 C -4.2751 -0.5829 0.0 0
M  V30 9 C -0.9837 -4.105 0.0 0 CFG=1
M  V30 10 C -3.437 -3.1091 0.0 0
M  V30 11 C 0.425 -3.5828 0.0 0
M  V30 12 C -4.5058 -2.0282 0.0 0
M  V30 13 C -1.4209 -5.5139 0.0 0
M  V30 14 C -4.943 -3.4492 0.0 0
M  V30 15 C -6.4733 -3.6557 0.0 0
M  V30 16 C -5.271 -4.8823 0.0 0
M  V30 END ATOM
M  V30 BEGIN BOND
M  V30 1 1 1 2
M  V30 2 1 3 2 CFG=1
M  V30 3 1 2 4
M  V30 4 1 2 5
M  V30 5 1 3 6
M  V30 6 1 3 7
M  V30 7 1 4 8
M  V30 8 1 6 9
M  V30 9 1 6 10
M  V30 10 1 7 11
M  V30 11 1 8 12
M  V30 12 1 9 13 CFG=1
M  V30 13 1 10 14
M  V30 14 1 14 15
M  V30 15 1 14 16
M  V30 16 1 9 11
M  V30 17 1 10 12
M  V30 18 1 12 14
M  V30 END BOND
M  V30 BEGIN COLLECTION
M  V30 MDLV30/STEABS ATOMS=(2 3 9)
M  V30 END COLLECTION
M  V30 END CTAB
M  END
>  <Molecule Name>
ledol

>  <Molecule Name 2>
ledol

>  <Database>
Essential Oil Database

>  <InChI>
InChI=1S/C15H26O/c1-9-5-6-10-12(9)13-11(14(13,2)3)7-8-15(10,4)16/h9-13,16H,5-8H2,1-4H3/t9-,10+,11?,12?,13?,15?/m1/s1

>  <InChI-Key>
AYXPYQRXGNDJFU-ZBZBBCKZSA-N

>  <Smiles>
C[C@H](CC1)C(C2C(C)(C)C2CC2)[C@H]1C2(C)O

>  <Molecular Formula>
C15H26O

$$$$
isoborneol
Actelion Java MolfileCreator 2.0

  0  0  0  0  0  0              0 V3000
M  V30 BEGIN CTAB
M  V30 COUNTS 11 12 0 0 0
M  V30 BEGIN ATOM
M  V30 1 O 0.0 0.0 0.0 0
M  V30 2 C -1.3071 0.7536 0.0 0 CFG=2
M  V30 3 C -2.6142 0.0588 0.0 0 CFG=2
M  V30 4 C -1.3542 2.261 0.0 0
M  V30 5 C -3.0382 1.5662 0.0 0
M  V30 6 C -3.9214 0.8243 0.0 0
M  V30 7 C -2.6613 -1.3542 0.0 0
M  V30 8 C -2.6613 3.0146 0.0 0 CFG=2
M  V30 9 C -4.4866 2.0372 0.0 0
M  V30 10 C -4.4866 1.1893 0.0 0
M  V30 11 C -3.9685 2.3316 0.0 0
M  V30 END ATOM
M  V30 BEGIN BOND
M  V30 1 1 2 1 CFG=3
M  V30 2 1 2 3
M  V30 3 1 2 4
M  V30 4 1 3 5
M  V30 5 1 3 6
M  V30 6 1 3 7 CFG=3
M  V30 7 1 8 4 CFG=3
M  V30 8 1 5 9
M  V30 9 1 5 10
M  V30 10 1 6 11
M  V30 11 1 5 8
M  V30 12 1 8 11
M  V30 END BOND
M  V30 BEGIN COLLECTION
M  V30 MDLV30/STEABS ATOMS=(3 2 3 8)
M  V30 END COLLECTION
M  V30 END CTAB
M  END
>  <Molecule Name>
isoborneol

>  <Molecule Name 2>
isoborneol

>  <Database>
Essential Oil Database

>  <InChI>
InChI=1S/C10H18O/c1-9(2)7-4-5-10(9,3)8(11)6-7/h7-8,11H,4-6H2,1-3H3/t7-,8+,10-/m1/s1

>  <InChI-Key>
DTGKSKDOIYIVQL-KHQFGBGNSA-N

>  <Smiles>
CC(C)([C@H](CC1)C2)[C@@]1(C)[C@H]2O

>  <Molecular Formula>
C10H18O

$$$$
beta-himachalene
Actelion Java MolfileCreator 2.0

  0  0  0  0  0  0              0 V3000
M  V30 BEGIN CTAB
M  V30 COUNTS 15 16 0 0 0
M  V30 BEGIN ATOM
M  V30 1 C 0.0 0.0 0.0 0
M  V30 2 C -1.2217 -0.8896 0.0 0
M  V30 3 C 1.4234 -0.2846 0.0 0
M  V30 4 C -0.3795 1.5183 0.0 0
M  V30 5 C -1.2692 -2.3486 0.0 0 CFG=2
M  V30 6 C -2.574 -0.0948 0.0 0
M  V30 7 C 2.0284 -1.5895 0.0 0
M  V30 8 C -2.6215 -3.0722 0.0 0
M  V30 9 C -0.1423 -3.2383 0.0 0
M  V30 10 C -3.9263 -0.7947 0.0 0
M  V30 11 C 1.3285 -2.8943 0.0 0
M  V30 12 C -3.9738 -2.2656 0.0 0
M  V30 13 C 0.1779 -4.6499 0.0 0
M  V30 14 C -1.1506 -4.3415 0.0 0
M  V30 15 C -5.326 -2.9892 0.0 0
M  V30 END ATOM
M  V30 BEGIN BOND
M  V30 1 2 1 2
M  V30 2 1 1 3
M  V30 3 1 1 4
M  V30 4 1 2 5
M  V30 5 1 2 6
M  V30 6 1 3 7
M  V30 7 1 5 8
M  V30 8 1 5 9 CFG=1
M  V30 9 1 6 10
M  V30 10 1 7 11
M  V30 11 2 8 12
M  V30 12 1 9 13
M  V30 13 1 9 14
M  V30 14 1 12 15
M  V30 15 1 9 11
M  V30 16 1 10 12
M  V30 END BOND
M  V30 BEGIN COLLECTION
M  V30 MDLV30/STERAC1 ATOMS=(1 5)
M  V30 END COLLECTION
M  V30 END CTAB
M  END
>  <Molecule Name>
beta-himachalene

>  <Molecule Name 2>
beta-himachalene

>  <Database>
Essential Oil Database

>  <InChI>
InChI=1S/C15H24/c1-11-7-8-13-12(2)6-5-9-15(3,4)14(13)10-11/h10,14H,5-9H2,1-4H3/t14-/m0/s1

>  <InChI-Key>
LCOSCMLXPAQCLQ-AWEZNQCLSA-N

>  <Smiles>
CC1(C)C(C=C(C)CC2)C2=C(C)CCC1

>  <Molecular Formula>
C15H24

$$$$
valencene
Actelion Java MolfileCreator 2.0

  0  0  0  0  0  0              0 V3000
M  V30 BEGIN CTAB
M  V30 COUNTS 15 16 0 0 0
M  V30 BEGIN ATOM
M  V30 1 C 0.0 0.0 0.0 0
M  V30 2 C -1.3651 0.8167 0.0 0
M  V30 3 C -0.0466 -1.4701 0.0 0 CFG=2
M  V30 4 C 1.2717 0.8167 0.0 0
M  V30 5 C -2.7302 0.1283 0.0 0
M  V30 6 C -1.4117 -2.1818 0.0 0 CFG=1
M  V30 7 C 1.225 -2.1818 0.0 0
M  V30 8 C -0.0933 -2.9402 0.0 0
M  V30 9 C 2.5435 0.1283 0.0 0
M  V30 10 C -2.7768 -1.3417 0.0 0
M  V30 11 C -1.4584 -3.6519 0.0 0
M  V30 12 C 2.4968 -1.3651 0.0 0 CFG=1
M  V30 13 C 3.7686 -2.0651 0.0 0
M  V30 14 C 3.7219 -3.5352 0.0 0
M  V30 15 C 5.0403 -1.2484 0.0 0
M  V30 END ATOM
M  V30 BEGIN BOND
M  V30 1 2 1 2
M  V30 2 1 1 3
M  V30 3 1 1 4
M  V30 4 1 2 5
M  V30 5 1 3 6
M  V30 6 1 3 7
M  V30 7 1 3 8 CFG=3
M  V30 8 1 4 9
M  V30 9 1 5 10
M  V30 10 1 6 11 CFG=3
M  V30 11 1 7 12
M  V30 12 1 12 13 CFG=1
M  V30 13 2 13 14
M  V30 14 1 13 15
M  V30 15 1 6 10
M  V30 16 1 9 12
M  V30 END BOND
M  V30 BEGIN COLLECTION
M  V30 MDLV30/STEABS ATOMS=(3 3 6 12)
M  V30 END COLLECTION
M  V30 END CTAB
M  END
>  <Molecule Name>
valencene

>  <Molecule Name 2>
valencene

>  <Database>
Essential Oil Database

>  <InChI>
InChI=1S/C15H24/c1-11(2)13-8-9-14-7-5-6-12(3)15(14,4)10-13/h7,12-13H,1,5-6,8-10H2,2-4H3/t12-,13-,15+/m1/s1

>  <InChI-Key>
QEBNYNLSCGVZOH-NFAWXSAZSA-N

>  <Smiles>
C[C@H]1[C@](C)(C[C@@H](CC2)C(C)=C)C2=CCC1

>  <Molecular Formula>
C15H24

$$$$
alpha-ylangene
Actelion Java MolfileCreator 2.0

  0  0  0  0  0  0              0 V3000
M  V30 BEGIN CTAB
M  V30 COUNTS 15 17 0 0 0
M  V30 BEGIN ATOM
M  V30 1 C 0.0 0.0 0.0 0
M  V30 2 C 1.0747 -1.0253 0.0 0
M  V30 3 C -1.2477 -1.1118 0.0 0 CFG=1
M  V30 4 C -0.0494 1.5195 0.0 0
M  V30 5 C 0.457 -2.3101 0.0 0
M  V30 6 C -1.8407 -0.3212 0.0 0 CFG=2
M  V30 7 C -2.2978 -2.3719 0.0 0
M  V30 8 C -1.1242 -2.1001 0.0 0 CFG=2
M  V30 9 C -3.3232 0.2964 0.0 0
M  V30 10 C -1.0006 0.8894 0.0 0
M  V30 11 C -3.7926 -2.236 0.0 0 CFG=2
M  V30 12 C -4.3732 -0.7659 0.0 0
M  V30 13 C -4.7068 -3.3602 0.0 0
M  V30 14 C -4.1509 -4.6574 0.0 0
M  V30 15 C -6.2263 -3.1379 0.0 0
M  V30 END ATOM
M  V30 BEGIN BOND
M  V30 1 2 1 2
M  V30 2 1 3 1 CFG=3
M  V30 3 1 1 4
M  V30 4 1 2 5
M  V30 5 1 3 6
M  V30 6 1 3 7
M  V30 7 1 8 5 CFG=1
M  V30 8 1 6 9
M  V30 9 1 6 10 CFG=1
M  V30 10 1 7 11
M  V30 11 1 9 12
M  V30 12 1 11 13 CFG=1
M  V30 13 1 13 14
M  V30 14 1 13 15
M  V30 15 1 6 8
M  V30 16 1 7 8
M  V30 17 1 11 12
M  V30 END BOND
M  V30 BEGIN COLLECTION
M  V30 MDLV30/STEABS ATOMS=(4 3 6 8 11)
M  V30 END COLLECTION
M  V30 END CTAB
M  END
>  <Molecule Name>
alpha-ylangene

>  <Molecule Name 2>
alpha-ylangene

>  <Database>
Essential Oil Database

>  <InChI>
InChI=1S/C15H24/c1-9(2)11-7-8-15(4)12-6-5-10(3)14(15)13(11)12/h5,9,11-14H,6-8H2,1-4H3/t11-,12+,13?,14-,15+/m1/s1

>  <InChI-Key>
VLXDPFLIRFYIME-WQGXVZNYSA-N

>  <Smiles>
CC(C)[C@@H]1C2[C@H]3C(C)=CC[C@@H]2[C@]3(C)CC1

>  <Molecular Formula>
C15H24

$$$$
apiole
Actelion Java MolfileCreator 2.0

  0  0  0  0  0  0              0 V3000
M  V30 BEGIN CTAB
M  V30 COUNTS 16 17 0 0 0
M  V30 BEGIN ATOM
M  V30 1 O 0.0 0.0 0.0 0
M  V30 2 C 1.3865 0.5229 0.0 0
M  V30 3 C -0.9243 1.2649 0.0 0
M  V30 4 C 2.6393 -0.1946 0.0 0
M  V30 5 C 1.3379 2.0798 0.0 0
M  V30 6 O -0.0973 2.5298 0.0 0
M  V30 7 O 2.5906 -1.6541 0.0 0
M  V30 8 C 3.892 0.5838 0.0 0
M  V30 9 C 2.5906 2.8704 0.0 0
M  V30 10 C 1.2405 -2.3838 0.0 0
M  V30 11 C 3.8434 2.1406 0.0 0
M  V30 12 C 5.1448 -0.1337 0.0 0
M  V30 13 O 2.542 4.4272 0.0 0
M  V30 14 C 5.0961 -1.5933 0.0 0
M  V30 15 C 1.1919 5.2178 0.0 0
M  V30 16 C 6.3489 -2.323 0.0 0
M  V30 END ATOM
M  V30 BEGIN BOND
M  V30 1 1 1 2
M  V30 2 1 1 3
M  V30 3 2 2 4
M  V30 4 1 2 5
M  V30 5 1 3 6
M  V30 6 1 4 7
M  V30 7 1 4 8
M  V30 8 2 5 9
M  V30 9 1 7 10
M  V30 10 2 8 11
M  V30 11 1 8 12
M  V30 12 1 9 13
M  V30 13 1 12 14
M  V30 14 1 13 15
M  V30 15 2 14 16
M  V30 16 1 5 6
M  V30 17 1 9 11
M  V30 END BOND
M  V30 END CTAB
M  END
>  <Molecule Name>
apiole

>  <Molecule Name 2>
apiole

>  <Database>
Essential Oil Database

>  <InChI>
InChI=1S/C12H14O4/c1-4-5-8-6-9(13-2)11-12(10(8)14-3)16-7-15-11/h4,6H,1,5,7H2,2-3H3

>  <InChI-Key>
QQRSPHJOOXUALR-UHFFFAOYSA-N

>  <Smiles>
COc(cc1CC=C)c2OCOc2c1OC

>  <Molecular Formula>
C12H14O4

$$$$
(z)-1-propenyl-2,3,4,5-tetramethoxybenzene
Actelion Java MolfileCreator 2.0

  0  0  0  0  0  0              0 V3000
M  V30 BEGIN CTAB
M  V30 COUNTS 17 17 0 0 0
M  V30 BEGIN ATOM
M  V30 1 O 0.0 0.0 0.0 0
M  V30 2 C -1.3251 0.764 0.0 0
M  V30 3 C -0.0477 -1.4326 0.0 0
M  V30 4 C -2.6503 0.0596 0.0 0
M  V30 5 C -1.3729 2.2921 0.0 0
M  V30 6 O -2.6981 -1.3729 0.0 0
M  V30 7 C -3.9755 0.8237 0.0 0
M  V30 8 O -0.1432 3.0682 0.0 0
M  V30 9 C -2.6981 3.0682 0.0 0
M  V30 10 C -4.0232 -2.0892 0.0 0
M  V30 11 O -5.3007 0.1193 0.0 0
M  V30 12 C -4.0232 2.3518 0.0 0
M  V30 13 C 1.0864 2.3638 0.0 0
M  V30 14 C -2.7458 4.5963 0.0 0
M  V30 15 C -6.6258 0.8953 0.0 0
M  V30 16 C -4.071 5.3604 0.0 0
M  V30 17 C -5.3962 4.656 0.0 0
M  V30 END ATOM
M  V30 BEGIN BOND
M  V30 1 1 1 2
M  V30 2 1 1 3
M  V30 3 2 2 4
M  V30 4 1 2 5
M  V30 5 1 4 6
M  V30 6 1 4 7
M  V30 7 1 5 8
M  V30 8 2 5 9
M  V30 9 1 6 10
M  V30 10 1 7 11
M  V30 11 2 7 12
M  V30 12 1 8 13
M  V30 13 1 9 14
M  V30 14 1 11 15
M  V30 15 2 14 16
M  V30 16 1 16 17
M  V30 17 1 9 12
M  V30 END BOND
M  V30 END CTAB
M  END
>  <Molecule Name>
(z)-1-propenyl-2,3,4,5-tetramethoxybenzene

>  <Molecule Name 2>
(z)-1-propenyl-2,3,4,5-tetramethoxybenzene

>  <Database>
Essential Oil Database

>  <InChI>
InChI=1S/C13H18O4/c1-6-7-9-8-10(14-2)12(16-4)13(17-5)11(9)15-3/h6-8H,1-5H3/b7-6-

>  <InChI-Key>
UZGCZTNAMZBYID-SREVYHEPSA-N

>  <Smiles>
C/C=C\c(cc(c(OC)c1OC)OC)c1OC

>  <Molecular Formula>
C13H18O4

$$$$
5,8,11-tetradecatrien-2-one
Actelion Java MolfileCreator 2.0

  0  0  0  0  0  0              0 V3000
M  V30 BEGIN CTAB
M  V30 COUNTS 15 14 0 0 0
M  V30 BEGIN ATOM
M  V30 1 O 0.0 0.0 0.0 0
M  V30 2 C -1.5164 0.0473 0.0 0
M  V30 3 C -2.2864 1.3624 0.0 0
M  V30 4 C -2.2864 -1.1728 0.0 0
M  V30 5 C -1.5756 2.6774 0.0 0
M  V30 6 C -2.3457 3.9924 0.0 0
M  V30 7 C -1.6349 5.3075 0.0 0
M  V30 8 C -2.4049 6.6225 0.0 0
M  V30 9 C -3.9214 6.6699 0.0 0
M  V30 10 C -4.6914 7.9849 0.0 0
M  V30 11 C -6.2079 8.0323 0.0 0
M  V30 12 C -6.9779 6.8121 0.0 0
M  V30 13 C -8.4944 6.8594 0.0 0
M  V30 14 C -9.2644 5.6392 0.0 0
M  V30 15 C -10.7809 5.6866 0.0 0
M  V30 END ATOM
M  V30 BEGIN BOND
M  V30 1 2 1 2
M  V30 2 1 2 3
M  V30 3 1 2 4
M  V30 4 1 3 5
M  V30 5 1 5 6
M  V30 6 2 6 7 CFG=2
M  V30 7 1 7 8
M  V30 8 1 8 9
M  V30 9 2 9 10 CFG=2
M  V30 10 1 10 11
M  V30 11 1 11 12
M  V30 12 2 12 13 CFG=2
M  V30 13 1 13 14
M  V30 14 1 14 15
M  V30 END BOND
M  V30 END CTAB
M  END
>  <Molecule Name>
5,8,11-tetradecatrien-2-one

>  <Molecule Name 2>
5,8,11-tetradecatrien-2-one

>  <Database>
Essential Oil Database

>  <InChI>
InChI=1S/C14H22O/c1-3-4-5-6-7-8-9-10-11-12-13-14(2)15/h4-5,7-8,10-11H,3,6,9,12-13H2,1-2H3

>  <InChI-Key>
IVCSDEBPVQZWOF-UHFFFAOYSA-N

>  <Smiles>
CCC=CCC=CCC=CCCC(C)=O

>  <Molecular Formula>
C14H22O

$$$$
p-cymen-8-yl acetate
Actelion Java MolfileCreator 2.0

  0  0  0  0  0  0              0 V3000
M  V30 BEGIN CTAB
M  V30 COUNTS 14 14 0 0 0
M  V30 BEGIN ATOM
M  V30 1 O 0.0 0.0 0.0 0
M  V30 2 C -0.0475 1.5214 0.0 0
M  V30 3 O 1.1767 2.294 0.0 0
M  V30 4 C -1.3669 2.294 0.0 0
M  V30 5 C 1.1291 3.8154 0.0 0
M  V30 6 C 1.0816 5.3369 0.0 0
M  V30 7 C 2.5555 3.863 0.0 0
M  V30 8 C -0.3922 3.863 0.0 0
M  V30 9 C 2.3059 6.0976 0.0 0
M  V30 10 C -0.2377 6.0976 0.0 0
M  V30 11 C 2.2583 7.619 0.0 0
M  V30 12 C -0.2852 7.619 0.0 0
M  V30 13 C 0.939 8.3916 0.0 0
M  V30 14 C 0.8914 9.9131 0.0 0
M  V30 END ATOM
M  V30 BEGIN BOND
M  V30 1 2 1 2
M  V30 2 1 2 3
M  V30 3 1 2 4
M  V30 4 1 3 5
M  V30 5 1 5 6
M  V30 6 1 5 7
M  V30 7 1 5 8
M  V30 8 2 6 9
M  V30 9 1 6 10
M  V30 10 1 9 11
M  V30 11 2 10 12
M  V30 12 2 11 13
M  V30 13 1 13 14
M  V30 14 1 12 13
M  V30 END BOND
M  V30 END CTAB
M  END
>  <Molecule Name>
p-cymen-8-yl acetate

>  <Molecule Name 2>
p-cymen-8-yl acetate

>  <Database>
Essential Oil Database

>  <InChI>
InChI=1S/C12H16O2/c1-9-5-7-11(8-6-9)12(3,4)14-10(2)13/h5-8H,1-4H3

>  <InChI-Key>
LQHSKMQTMCTISH-UHFFFAOYSA-N

>  <Smiles>
CC(C)(c1ccc(C)cc1)OC(C)=O

>  <Molecular Formula>
C12H16O2

$$$$
umbellulone
Actelion Java MolfileCreator 2.0

  0  0  0  0  0  0              0 V3000
M  V30 BEGIN CTAB
M  V30 COUNTS 11 12 0 0 0
M  V30 BEGIN ATOM
M  V30 1 O 0.0 0.0 0.0 0
M  V30 2 C -0.5123 1.4535 0.0 0
M  V30 3 C 0.2978 2.6927 0.0 0
M  V30 4 C -1.9659 1.9659 0.0 0
M  V30 5 C -0.6076 3.9318 0.0 0
M  V30 6 C -2.0135 3.4909 0.0 0
M  V30 7 C -2.6331 0.6672 0.0 0
M  V30 8 C -3.2884 2.7284 0.0 0
M  V30 9 C -0.1906 5.3854 0.0 0
M  V30 10 C -4.1463 0.5599 0.0 0
M  V30 11 C -1.8229 -0.4765 0.0 0
M  V30 END ATOM
M  V30 BEGIN BOND
M  V30 1 2 1 2
M  V30 2 1 2 3
M  V30 3 1 2 4
M  V30 4 2 3 5
M  V30 5 1 4 6
M  V30 6 1 4 7
M  V30 7 1 4 8
M  V30 8 1 5 9
M  V30 9 1 7 10
M  V30 10 1 7 11
M  V30 11 1 5 6
M  V30 12 1 6 8
M  V30 END BOND
M  V30 END CTAB
M  END
>  <Molecule Name>
umbellulone

>  <Molecule Name 2>
umbellulone

>  <Database>
Essential Oil Database

>  <InChI>
InChI=1S/C10H14O/c1-6(2)10-5-8(10)7(3)4-9(10)11/h4,6,8H,5H2,1-3H3

>  <InChI-Key>
LTTVJAQLCIHAFV-UHFFFAOYSA-N

>  <Smiles>
CC(C)C(C1)(C1C(C)=C1)C1=O

>  <Molecular Formula>
C10H14O

$$$$
1-undecyn-4-ol
Actelion Java MolfileCreator 2.0

  0  0  0  0  0  0              0 V3000
M  V30 BEGIN CTAB
M  V30 COUNTS 12 11 0 0 0
M  V30 BEGIN ATOM
M  V30 1 O 0.0 0.0 0.0 0
M  V30 2 C -0.0487 1.56 0.0 0 CFG=2
M  V30 3 C -1.4015 2.3522 0.0 0
M  V30 4 C 1.2065 2.3522 0.0 0
M  V30 5 C -2.7543 1.6209 0.0 0
M  V30 6 C 2.4618 1.6209 0.0 0
M  V30 7 C -4.1072 0.8896 0.0 0
M  V30 8 C 3.7172 2.4131 0.0 0
M  V30 9 C 4.9725 1.6818 0.0 0
M  V30 10 C 6.2278 2.474 0.0 0
M  V30 11 C 7.4831 1.7428 0.0 0
M  V30 12 C 8.7385 2.535 0.0 0
M  V30 END ATOM
M  V30 BEGIN BOND
M  V30 1 1 2 1 CFG=3
M  V30 2 1 2 3
M  V30 3 1 2 4
M  V30 4 1 3 5
M  V30 5 1 4 6
M  V30 6 3 5 7
M  V30 7 1 6 8
M  V30 8 1 8 9
M  V30 9 1 9 10
M  V30 10 1 10 11
M  V30 11 1 11 12
M  V30 END BOND
M  V30 BEGIN COLLECTION
M  V30 MDLV30/STERAC1 ATOMS=(1 2)
M  V30 END COLLECTION
M  V30 END CTAB
M  END
>  <Molecule Name>
1-undecyn-4-ol

>  <Molecule Name 2>
1-undecyn-4-ol

>  <Database>
Essential Oil Database

>  <InChI>
InChI=1S/C11H20O/c1-3-5-6-7-8-10-11(12)9-4-2/h2,11-12H,3,5-10H2,1H3/t11-/m1/s1

>  <InChI-Key>
IBEKWLNDNQDLQS-LLVKDONJSA-N

>  <Smiles>
CCCCCCCC(CC#C)O

>  <Molecular Formula>
C11H20O

$$$$
2-decenoic acid
Actelion Java MolfileCreator 2.0

  0  0  0  0  0  0              0 V3000
M  V30 BEGIN CTAB
M  V30 COUNTS 12 11 0 0 0
M  V30 BEGIN ATOM
M  V30 1 O 0.0 0.0 0.0 0
M  V30 2 C 1.2859 -0.7078 0.0 0
M  V30 3 O 1.2387 -2.1943 0.0 0
M  V30 4 C 2.5718 0.1297 0.0 0
M  V30 5 C 3.8577 -0.578 0.0 0
M  V30 6 C 5.1437 0.2595 0.0 0
M  V30 7 C 6.4296 -0.4483 0.0 0
M  V30 8 C 7.7155 0.3893 0.0 0
M  V30 9 C 9.0015 -0.3185 0.0 0
M  V30 10 C 10.2874 0.519 0.0 0
M  V30 11 C 11.5733 -0.1887 0.0 0
M  V30 12 C 12.8592 0.6488 0.0 0
M  V30 END ATOM
M  V30 BEGIN BOND
M  V30 1 2 1 2
M  V30 2 1 2 3
M  V30 3 1 2 4
M  V30 4 2 4 5 CFG=2
M  V30 5 1 5 6
M  V30 6 1 6 7
M  V30 7 1 7 8
M  V30 8 1 8 9
M  V30 9 1 9 10
M  V30 10 1 10 11
M  V30 11 1 11 12
M  V30 END BOND
M  V30 END CTAB
M  END
>  <Molecule Name>
2-decenoic acid

>  <Molecule Name 2>
2-decenoic acid

>  <Database>
Essential Oil Database

>  <InChI>
InChI=1S/C10H18O2/c1-2-3-4-5-6-7-8-9-10(11)12/h8-9H,2-7H2,1H3,(H,11,12)

>  <InChI-Key>
WXBXVVIUZANZAU-UHFFFAOYSA-N

>  <Smiles>
CCCCCCCC=CC(O)=O

>  <Molecular Formula>
C10H18O2

$$$$
2-dodecenoic acid
Actelion Java MolfileCreator 2.0

  0  0  0  0  0  0              0 V3000
M  V30 BEGIN CTAB
M  V30 COUNTS 14 13 0 0 0
M  V30 BEGIN ATOM
M  V30 1 O 0.0 0.0 0.0 0
M  V30 2 C 1.2857 -0.7077 0.0 0
M  V30 3 O 1.2385 -2.194 0.0 0
M  V30 4 C 2.5715 0.1297 0.0 0
M  V30 5 C 3.8572 -0.578 0.0 0
M  V30 6 C 5.143 0.2595 0.0 0
M  V30 7 C 6.4288 -0.4482 0.0 0
M  V30 8 C 7.7145 0.3892 0.0 0
M  V30 9 C 9.0003 -0.3184 0.0 0
M  V30 10 C 10.286 0.519 0.0 0
M  V30 11 C 11.5718 -0.1887 0.0 0
M  V30 12 C 12.8576 0.6487 0.0 0
M  V30 13 C 14.1433 -0.0589 0.0 0
M  V30 14 C 15.4291 0.7785 0.0 0
M  V30 END ATOM
M  V30 BEGIN BOND
M  V30 1 2 1 2
M  V30 2 1 2 3
M  V30 3 1 2 4
M  V30 4 2 4 5 CFG=2
M  V30 5 1 5 6
M  V30 6 1 6 7
M  V30 7 1 7 8
M  V30 8 1 8 9
M  V30 9 1 9 10
M  V30 10 1 10 11
M  V30 11 1 11 12
M  V30 12 1 12 13
M  V30 13 1 13 14
M  V30 END BOND
M  V30 END CTAB
M  END
>  <Molecule Name>
2-dodecenoic acid

>  <Molecule Name 2>
2-dodecenoic acid

>  <Database>
Essential Oil Database

>  <InChI>
InChI=1S/C12H22O2/c1-2-3-4-5-6-7-8-9-10-11-12(13)14/h10-11H,2-9H2,1H3,(H,13,14)

>  <InChI-Key>
PAWGRNGPMLVJQH-UHFFFAOYSA-N

>  <Smiles>
CCCCCCCCCC=CC(O)=O

>  <Molecular Formula>
C12H22O2

$$$$
2-nonanone
Actelion Java MolfileCreator 2.0

  0  0  0  0  0  0              0 V3000
M  V30 BEGIN CTAB
M  V30 COUNTS 10 9 0 0 0
M  V30 BEGIN ATOM
M  V30 1 O 0.0 0.0 0.0 0
M  V30 2 C -0.049 1.5688 0.0 0
M  V30 3 C 1.2133 2.3654 0.0 0
M  V30 4 C -1.4094 2.3654 0.0 0
M  V30 5 C 2.4757 1.63 0.0 0
M  V30 6 C 3.7381 2.4267 0.0 0
M  V30 7 C 5.0005 1.6913 0.0 0
M  V30 8 C 6.2629 2.488 0.0 0
M  V30 9 C 7.5253 1.7526 0.0 0
M  V30 10 C 8.7877 2.5493 0.0 0
M  V30 END ATOM
M  V30 BEGIN BOND
M  V30 1 2 1 2
M  V30 2 1 2 3
M  V30 3 1 2 4
M  V30 4 1 3 5
M  V30 5 1 5 6
M  V30 6 1 6 7
M  V30 7 1 7 8
M  V30 8 1 8 9
M  V30 9 1 9 10
M  V30 END BOND
M  V30 END CTAB
M  END
>  <Molecule Name>
2-nonanone

>  <Molecule Name 2>
2-nonanone

>  <Database>
Essential Oil Database

>  <InChI>
InChI=1S/C9H18O/c1-3-4-5-6-7-8-9(2)10/h3-8H2,1-2H3

>  <InChI-Key>
VKCYHJWLYTUGCC-UHFFFAOYSA-N

>  <Smiles>
CCCCCCCC(C)=O

>  <Molecular Formula>
C9H18O

$$$$
(e)-2-decenol
Actelion Java MolfileCreator 2.0

  0  0  0  0  0  0              0 V3000
M  V30 BEGIN CTAB
M  V30 COUNTS 11 10 0 0 0
M  V30 BEGIN ATOM
M  V30 1 O 0.0 0.0 0.0 0
M  V30 2 C -0.0494 1.5817 0.0 0
M  V30 3 C 1.2233 2.3849 0.0 0
M  V30 4 C 2.4962 1.6435 0.0 0
M  V30 5 C 3.769 2.4467 0.0 0
M  V30 6 C 5.0418 1.7053 0.0 0
M  V30 7 C 6.3146 2.5085 0.0 0
M  V30 8 C 7.5874 1.7671 0.0 0
M  V30 9 C 8.8602 2.5703 0.0 0
M  V30 10 C 10.1331 1.8289 0.0 0
M  V30 11 C 11.4059 2.6321 0.0 0
M  V30 END ATOM
M  V30 BEGIN BOND
M  V30 1 1 1 2
M  V30 2 1 2 3
M  V30 3 2 3 4
M  V30 4 1 4 5
M  V30 5 1 5 6
M  V30 6 1 6 7
M  V30 7 1 7 8
M  V30 8 1 8 9
M  V30 9 1 9 10
M  V30 10 1 10 11
M  V30 END BOND
M  V30 END CTAB
M  END
>  <Molecule Name>
(e)-2-decenol

>  <Molecule Name 2>
(e)-2-decenol

>  <Database>
Essential Oil Database

>  <InChI>
InChI=1S/C10H20O/c1-2-3-4-5-6-7-8-9-10-11/h8-9,11H,2-7,10H2,1H3/b9-8+

>  <InChI-Key>
QOPYYRPCXHTOQZ-CMDGGOBGSA-N

>  <Smiles>
CCCCCCC/C=C/CO

>  <Molecular Formula>
C10H20O

$$$$
(e)-2-hexadecenal
Actelion Java MolfileCreator 2.0

  0  0  0  0  0  0              0 V3000
M  V30 BEGIN CTAB
M  V30 COUNTS 17 16 0 0 0
M  V30 BEGIN ATOM
M  V30 1 O 0.0 0.0 0.0 0
M  V30 2 C -0.0496 1.5885 0.0 0
M  V30 3 C 1.2286 2.3952 0.0 0
M  V30 4 C 2.5068 1.6629 0.0 0
M  V30 5 C 3.7851 2.482 0.0 0
M  V30 6 C 5.0634 1.7498 0.0 0
M  V30 7 C 6.3416 2.5565 0.0 0
M  V30 8 C 7.6199 1.8243 0.0 0
M  V30 9 C 8.8982 2.6309 0.0 0
M  V30 10 C 10.1764 1.8987 0.0 0
M  V30 11 C 11.4547 2.7054 0.0 0
M  V30 12 C 12.733 1.9732 0.0 0
M  V30 13 C 14.0113 2.7799 0.0 0
M  V30 14 C 15.2895 2.0477 0.0 0
M  V30 15 C 16.5678 2.8543 0.0 0
M  V30 16 C 17.8461 2.1221 0.0 0
M  V30 17 C 19.1243 2.9288 0.0 0
M  V30 END ATOM
M  V30 BEGIN BOND
M  V30 1 2 1 2
M  V30 2 1 2 3
M  V30 3 2 3 4
M  V30 4 1 4 5
M  V30 5 1 5 6
M  V30 6 1 6 7
M  V30 7 1 7 8
M  V30 8 1 8 9
M  V30 9 1 9 10
M  V30 10 1 10 11
M  V30 11 1 11 12
M  V30 12 1 12 13
M  V30 13 1 13 14
M  V30 14 1 14 15
M  V30 15 1 15 16
M  V30 16 1 16 17
M  V30 END BOND
M  V30 END CTAB
M  END
>  <Molecule Name>
(e)-2-hexadecenal

>  <Molecule Name 2>
(e)-2-hexadecenal

>  <Database>
Essential Oil Database

>  <InChI>
InChI=1S/C16H30O/c1-2-3-4-5-6-7-8-9-10-11-12-13-14-15-16-17/h14-16H,2-13H2,1H3/b15-14+

>  <InChI-Key>
KLJFYXOVGVXZKT-CCEZHUSRSA-N

>  <Smiles>
CCCCCCCCCCCCC/C=C/C=O

>  <Molecular Formula>
C16H30O

$$$$
(e,z)-2,4-decadienal
Actelion Java MolfileCreator 2.0

  0  0  0  0  0  0              0 V3000
M  V30 BEGIN CTAB
M  V30 COUNTS 11 10 0 0 0
M  V30 BEGIN ATOM
M  V30 1 O 0.0 0.0 0.0 0
M  V30 2 C 1.2925 -0.7115 0.0 0
M  V30 3 C 2.5851 0.1185 0.0 0
M  V30 4 C 3.8777 -0.5929 0.0 0
M  V30 5 C 3.8303 -2.0871 0.0 0
M  V30 6 C 5.1229 -2.7867 0.0 0
M  V30 7 C 6.4154 -1.9566 0.0 0
M  V30 8 C 7.708 -2.6563 0.0 0
M  V30 9 C 9.0006 -1.8262 0.0 0
M  V30 10 C 10.2932 -2.5258 0.0 0
M  V30 11 C 11.5858 -1.6957 0.0 0
M  V30 END ATOM
M  V30 BEGIN BOND
M  V30 1 2 1 2
M  V30 2 1 2 3
M  V30 3 2 3 4
M  V30 4 1 4 5
M  V30 5 2 5 6
M  V30 6 1 6 7
M  V30 7 1 7 8
M  V30 8 1 8 9
M  V30 9 1 9 10
M  V30 10 1 10 11
M  V30 END BOND
M  V30 END CTAB
M  END
>  <Molecule Name>
(e,z)-2,4-decadienal

>  <Molecule Name 2>
(e,z)-2,4-decadienal

>  <Database>
Essential Oil Database

>  <InChI>
InChI=1S/C10H16O/c1-2-3-4-5-6-7-8-9-10-11/h6-10H,2-5H2,1H3/b7-6-,9-8-

>  <InChI-Key>
JZQKTMZYLHNFPL-JPDBVBESSA-N

>  <Smiles>
CCCCC/C=C\C=C/C=O

>  <Molecular Formula>
C10H16O

$$$$
heptanoic acid
Actelion Java MolfileCreator 2.0

  0  0  0  0  0  0              0 V3000
M  V30 BEGIN CTAB
M  V30 COUNTS 9 8 0 0 0
M  V30 BEGIN ATOM
M  V30 1 O 0.0 0.0 0.0 0
M  V30 2 C -0.0467 -1.4731 0.0 0
M  V30 3 O -1.4146 -2.2096 0.0 0
M  V30 4 C 1.2275 -2.2096 0.0 0
M  V30 5 C 2.5019 -1.3795 0.0 0
M  V30 6 C 3.7763 -2.1161 0.0 0
M  V30 7 C 5.0506 -1.286 0.0 0
M  V30 8 C 6.325 -2.0109 0.0 0
M  V30 9 C 7.5994 -1.1808 0.0 0
M  V30 END ATOM
M  V30 BEGIN BOND
M  V30 1 2 1 2
M  V30 2 1 2 3
M  V30 3 1 2 4
M  V30 4 1 4 5
M  V30 5 1 5 6
M  V30 6 1 6 7
M  V30 7 1 7 8
M  V30 8 1 8 9
M  V30 END BOND
M  V30 END CTAB
M  END
>  <Molecule Name>
heptanoic acid

>  <Molecule Name 2>
heptanoic acid

>  <Database>
Essential Oil Database

>  <InChI>
InChI=1S/C7H14O2/c1-2-3-4-5-6-7(8)9/h2-6H2,1H3,(H,8,9)

>  <InChI-Key>
MNWFXJYAOYHMED-UHFFFAOYSA-N

>  <Smiles>
CCCCCCC(O)=O

>  <Molecular Formula>
C7H14O2

$$$$
methyl salicylate
Actelion Java MolfileCreator 2.0

  0  0  0  0  0  0              0 V3000
M  V30 BEGIN CTAB
M  V30 COUNTS 11 11 0 0 0
M  V30 BEGIN ATOM
M  V30 1 O 0.0 0.0 0.0 0
M  V30 2 C 1.2629 -0.7234 0.0 0
M  V30 3 O 2.5258 0.0613 0.0 0
M  V30 4 C 1.2138 -2.1948 0.0 0
M  V30 5 C 2.4768 1.6307 0.0 0
M  V30 6 C -0.1471 -2.9182 0.0 0
M  V30 7 C 2.4768 -2.9182 0.0 0
M  V30 8 O -1.5081 -2.1212 0.0 0
M  V30 9 C -0.1961 -4.3896 0.0 0
M  V30 10 C 2.4277 -4.3896 0.0 0
M  V30 11 C 1.0667 -5.113 0.0 0
M  V30 END ATOM
M  V30 BEGIN BOND
M  V30 1 2 1 2
M  V30 2 1 2 3
M  V30 3 1 2 4
M  V30 4 1 3 5
M  V30 5 2 4 6
M  V30 6 1 4 7
M  V30 7 1 6 8
M  V30 8 1 6 9
M  V30 9 2 7 10
M  V30 10 2 9 11
M  V30 11 1 10 11
M  V30 END BOND
M  V30 END CTAB
M  END
>  <Molecule Name>
methyl salicylate

>  <Molecule Name 2>
methyl salicylate

>  <Database>
Essential Oil Database

>  <InChI>
InChI=1S/C8H8O3/c1-11-8(10)6-4-2-3-5-7(6)9/h2-5,9H,1H3

>  <InChI-Key>
OSWPMRLSEDHDFF-UHFFFAOYSA-N

>  <Smiles>
COC(c(cccc1)c1O)=O

>  <Molecular Formula>
C8H8O3

$$$$
tridecanoic acid
Actelion Java MolfileCreator 2.0

  0  0  0  0  0  0              0 V3000
M  V30 BEGIN CTAB
M  V30 COUNTS 15 14 0 0 0
M  V30 BEGIN ATOM
M  V30 1 O 0.0 0.0 0.0 0
M  V30 2 C -0.0469 -1.4793 0.0 0
M  V30 3 O -1.4206 -2.219 0.0 0
M  V30 4 C 1.2328 -2.219 0.0 0
M  V30 5 C 2.5125 -1.3971 0.0 0
M  V30 6 C 3.7923 -2.1133 0.0 0
M  V30 7 C 5.072 -1.2915 0.0 0
M  V30 8 C 6.3518 -2.0077 0.0 0
M  V30 9 C 7.6316 -1.1858 0.0 0
M  V30 10 C 8.9113 -1.9255 0.0 0
M  V30 11 C 10.1911 -1.1036 0.0 0
M  V30 12 C 11.4709 -1.8433 0.0 0
M  V30 13 C 12.7506 -1.0214 0.0 0
M  V30 14 C 14.0304 -1.7376 0.0 0
M  V30 15 C 15.3102 -0.9157 0.0 0
M  V30 END ATOM
M  V30 BEGIN BOND
M  V30 1 2 1 2
M  V30 2 1 2 3
M  V30 3 1 2 4
M  V30 4 1 4 5
M  V30 5 1 5 6
M  V30 6 1 6 7
M  V30 7 1 7 8
M  V30 8 1 8 9
M  V30 9 1 9 10
M  V30 10 1 10 11
M  V30 11 1 11 12
M  V30 12 1 12 13
M  V30 13 1 13 14
M  V30 14 1 14 15
M  V30 END BOND
M  V30 END CTAB
M  END
>  <Molecule Name>
tridecanoic acid

>  <Molecule Name 2>
tridecanoic acid

>  <Database>
Essential Oil Database

>  <InChI>
InChI=1S/C13H26O2/c1-2-3-4-5-6-7-8-9-10-11-12-13(14)15/h2-12H2,1H3,(H,14,15)

>  <InChI-Key>
SZHOJFHSIKHZHA-UHFFFAOYSA-N

>  <Smiles>
CCCCCCCCCCCCC(O)=O

>  <Molecular Formula>
C13H26O2

$$$$
undecanoic acid
Actelion Java MolfileCreator 2.0

  0  0  0  0  0  0              0 V3000
M  V30 BEGIN CTAB
M  V30 COUNTS 13 12 0 0 0
M  V30 BEGIN ATOM
M  V30 1 O 0.0 0.0 0.0 0
M  V30 2 C -0.0468 -1.4766 0.0 0
M  V30 3 O -1.418 -2.215 0.0 0
M  V30 4 C 1.2305 -2.215 0.0 0
M  V30 5 C 2.5079 -1.3829 0.0 0
M  V30 6 C 3.7854 -2.0978 0.0 0
M  V30 7 C 5.0628 -1.2657 0.0 0
M  V30 8 C 6.3403 -1.9806 0.0 0
M  V30 9 C 7.6177 -1.1485 0.0 0
M  V30 10 C 8.8951 -1.8634 0.0 0
M  V30 11 C 10.1726 -1.0313 0.0 0
M  V30 12 C 11.45 -1.7696 0.0 0
M  V30 13 C 12.7274 -0.9375 0.0 0
M  V30 END ATOM
M  V30 BEGIN BOND
M  V30 1 2 1 2
M  V30 2 1 2 3
M  V30 3 1 2 4
M  V30 4 1 4 5
M  V30 5 1 5 6
M  V30 6 1 6 7
M  V30 7 1 7 8
M  V30 8 1 8 9
M  V30 9 1 9 10
M  V30 10 1 10 11
M  V30 11 1 11 12
M  V30 12 1 12 13
M  V30 END BOND
M  V30 END CTAB
M  END
>  <Molecule Name>
undecanoic acid

>  <Molecule Name 2>
undecanoic acid

>  <Database>
Essential Oil Database

>  <InChI>
InChI=1S/C11H22O2/c1-2-3-4-5-6-7-8-9-10-11(12)13/h2-10H2,1H3,(H,12,13)

>  <InChI-Key>
ZDPHROOEEOARMN-UHFFFAOYSA-N

>  <Smiles>
CCCCCCCCCCC(O)=O

>  <Molecular Formula>
C11H22O2

$$$$
undecanol
Actelion Java MolfileCreator 2.0

  0  0  0  0  0  0              0 V3000
M  V30 BEGIN CTAB
M  V30 COUNTS 12 11 0 0 0
M  V30 BEGIN ATOM
M  V30 1 O 0.0 0.0 0.0 0
M  V30 2 C 1.2824 0.8142 0.0 0
M  V30 3 C 2.5649 0.0814 0.0 0
M  V30 4 C 3.8473 0.8956 0.0 0
M  V30 5 C 5.1298 0.1628 0.0 0
M  V30 6 C 6.4122 0.9771 0.0 0
M  V30 7 C 7.6947 0.2442 0.0 0
M  V30 8 C 8.9771 1.0585 0.0 0
M  V30 9 C 10.2596 0.3257 0.0 0
M  V30 10 C 11.542 1.1399 0.0 0
M  V30 11 C 12.8245 0.4071 0.0 0
M  V30 12 C 14.1069 1.2213 0.0 0
M  V30 END ATOM
M  V30 BEGIN BOND
M  V30 1 1 1 2
M  V30 2 1 2 3
M  V30 3 1 3 4
M  V30 4 1 4 5
M  V30 5 1 5 6
M  V30 6 1 6 7
M  V30 7 1 7 8
M  V30 8 1 8 9
M  V30 9 1 9 10
M  V30 10 1 10 11
M  V30 11 1 11 12
M  V30 END BOND
M  V30 END CTAB
M  END
>  <Molecule Name>
undecanol

>  <Molecule Name 2>
undecanol

>  <Database>
Essential Oil Database

>  <InChI>
InChI=1S/C11H24O/c1-2-3-4-5-6-7-8-9-10-11-12/h12H,2-11H2,1H3

>  <InChI-Key>
KJIOQYGWTQBHNH-UHFFFAOYSA-N

>  <Smiles>
CCCCCCCCCCCO

>  <Molecular Formula>
C11H24O

$$$$
1-nonene
Actelion Java MolfileCreator 2.0

  0  0  0  0  0  0              0 V3000
M  V30 BEGIN CTAB
M  V30 COUNTS 9 8 0 0 0
M  V30 BEGIN ATOM
M  V30 1 C 0.0 0.0 0.0 0
M  V30 2 C -1.3682 0.7909 0.0 0
M  V30 3 C 1.2826 0.7909 0.0 0
M  V30 4 C 2.5653 0.0855 0.0 0
M  V30 5 C 3.848 0.8765 0.0 0
M  V30 6 C 5.1307 0.171 0.0 0
M  V30 7 C 6.4134 0.962 0.0 0
M  V30 8 C 7.6961 0.2565 0.0 0
M  V30 9 C 8.9788 1.0475 0.0 0
M  V30 END ATOM
M  V30 BEGIN BOND
M  V30 1 2 1 2
M  V30 2 1 1 3
M  V30 3 1 3 4
M  V30 4 1 4 5
M  V30 5 1 5 6
M  V30 6 1 6 7
M  V30 7 1 7 8
M  V30 8 1 8 9
M  V30 END BOND
M  V30 END CTAB
M  END
>  <Molecule Name>
1-nonene

>  <Molecule Name 2>
1-nonene

>  <Database>
Essential Oil Database

>  <InChI>
InChI=1S/C9H18/c1-3-5-7-9-8-6-4-2/h3H,1,4-9H2,2H3

>  <InChI-Key>
JRZJOMJEPLMPRA-UHFFFAOYSA-N

>  <Smiles>
CCCCCCCC=C

>  <Molecular Formula>
C9H18

$$$$
2-methyl-2-pentenoic acid
Actelion Java MolfileCreator 2.0

  0  0  0  0  0  0              0 V3000
M  V30 BEGIN CTAB
M  V30 COUNTS 8 7 0 0 0
M  V30 BEGIN ATOM
M  V30 1 O 0.0 0.0 0.0 0
M  V30 2 C -1.5358 0.0479 0.0 0
M  V30 3 O -2.3157 1.3798 0.0 0
M  V30 4 C -2.3157 -1.1878 0.0 0
M  V30 5 C -3.8515 -1.1398 0.0 0
M  V30 6 C -1.6077 -2.4236 0.0 0
M  V30 7 C -4.6314 -2.3757 0.0 0
M  V30 8 C -6.1672 -2.3277 0.0 0
M  V30 END ATOM
M  V30 BEGIN BOND
M  V30 1 2 1 2
M  V30 2 1 2 3
M  V30 3 1 2 4
M  V30 4 2 4 5 CFG=2
M  V30 5 1 4 6
M  V30 6 1 5 7
M  V30 7 1 7 8
M  V30 END BOND
M  V30 END CTAB
M  END
>  <Molecule Name>
2-methyl-2-pentenoic acid

>  <Molecule Name 2>
2-methyl-2-pentenoic acid

>  <Database>
Essential Oil Database

>  <InChI>
InChI=1S/C6H10O2/c1-3-4-5(2)6(7)8/h4H,3H2,1-2H3,(H,7,8)

>  <InChI-Key>
JJYWRQLLQAKNAD-UHFFFAOYSA-N

>  <Smiles>
CCC=C(C)C(O)=O

>  <Molecular Formula>
C6H10O2

$$$$
9-decen-1-ol
Actelion Java MolfileCreator 2.0

  0  0  0  0  0  0              0 V3000
M  V30 BEGIN CTAB
M  V30 COUNTS 11 10 0 0 0
M  V30 BEGIN ATOM
M  V30 1 O 0.0 0.0 0.0 0
M  V30 2 C 1.284 0.8152 0.0 0
M  V30 3 C 2.5681 0.0815 0.0 0
M  V30 4 C 3.8522 0.8968 0.0 0
M  V30 5 C 5.1363 0.163 0.0 0
M  V30 6 C 6.4204 0.9783 0.0 0
M  V30 7 C 7.7045 0.2445 0.0 0
M  V30 8 C 8.9886 1.0598 0.0 0
M  V30 9 C 10.2727 0.3261 0.0 0
M  V30 10 C 11.5568 1.1414 0.0 0
M  V30 11 C 12.8408 0.4076 0.0 0
M  V30 END ATOM
M  V30 BEGIN BOND
M  V30 1 1 1 2
M  V30 2 1 2 3
M  V30 3 1 3 4
M  V30 4 1 4 5
M  V30 5 1 5 6
M  V30 6 1 6 7
M  V30 7 1 7 8
M  V30 8 1 8 9
M  V30 9 1 9 10
M  V30 10 2 10 11
M  V30 END BOND
M  V30 END CTAB
M  END
>  <Molecule Name>
9-decen-1-ol

>  <Molecule Name 2>
9-decen-1-ol

>  <Database>
Essential Oil Database

>  <InChI>
InChI=1S/C10H20O/c1-2-3-4-5-6-7-8-9-10-11/h2,11H,1,3-10H2

>  <InChI-Key>
QGFSQVPRCWJZQK-UHFFFAOYSA-N

>  <Smiles>
C=CCCCCCCCCO

>  <Molecular Formula>
C10H20O

$$$$
acetic acid
Actelion Java MolfileCreator 2.0

  0  0  0  0  0  0              0 V3000
M  V30 BEGIN CTAB
M  V30 COUNTS 4 3 0 0 0
M  V30 BEGIN ATOM
M  V30 1 O 0.0 0.0 0.0 0
M  V30 2 C 1.488 0.0472 0.0 0
M  V30 3 O 2.1848 -1.24 0.0 0
M  V30 4 C 2.1848 1.4289 0.0 0
M  V30 END ATOM
M  V30 BEGIN BOND
M  V30 1 2 1 2
M  V30 2 1 2 3
M  V30 3 1 2 4
M  V30 END BOND
M  V30 END CTAB
M  END
>  <Molecule Name>
acetic acid

>  <Molecule Name 2>
acetic acid

>  <Database>
Essential Oil Database

>  <InChI>
InChI=1S/C2H4O2/c1-2(3)4/h1H3,(H,3,4)

>  <InChI-Key>
QTBSBXVTEAMEQO-UHFFFAOYSA-N

>  <Smiles>
CC(O)=O

>  <Molecular Formula>
C2H4O2

$$$$
benzyl-2-methylbutyrate
Actelion Java MolfileCreator 2.0

  0  0  0  0  0  0              0 V3000
M  V30 BEGIN CTAB
M  V30 COUNTS 14 14 0 0 0
M  V30 BEGIN ATOM
M  V30 1 O 0.0 0.0 0.0 0
M  V30 2 C -0.0469 -1.4797 0.0 0
M  V30 3 O 1.2331 -2.1727 0.0 0
M  V30 4 C -1.421 -2.1727 0.0 0 CFG=2
M  V30 5 C 2.5133 -1.3506 0.0 0
M  V30 6 C -2.7951 -1.3506 0.0 0
M  V30 7 C -1.468 -3.6525 0.0 0
M  V30 8 C 3.7934 -2.0435 0.0 0
M  V30 9 C -4.1692 -2.0435 0.0 0
M  V30 10 C 5.0735 -1.2214 0.0 0
M  V30 11 C 3.7464 -3.5233 0.0 0
M  V30 12 C 6.3537 -1.9143 0.0 0
M  V30 13 C 5.0266 -4.2279 0.0 0
M  V30 14 C 6.3067 -3.3941 0.0 0
M  V30 END ATOM
M  V30 BEGIN BOND
M  V30 1 2 1 2
M  V30 2 1 2 3
M  V30 3 1 2 4
M  V30 4 1 3 5
M  V30 5 1 4 6
M  V30 6 1 4 7 CFG=1
M  V30 7 1 5 8
M  V30 8 1 6 9
M  V30 9 2 8 10
M  V30 10 1 8 11
M  V30 11 1 10 12
M  V30 12 2 11 13
M  V30 13 2 12 14
M  V30 14 1 13 14
M  V30 END BOND
M  V30 BEGIN COLLECTION
M  V30 MDLV30/STERAC1 ATOMS=(1 4)
M  V30 END COLLECTION
M  V30 END CTAB
M  END
>  <Molecule Name>
benzyl-2-methylbutyrate

>  <Molecule Name 2>
benzyl-2-methylbutyrate

>  <Database>
Essential Oil Database

>  <InChI>
InChI=1S/C12H16O2/c1-3-10(2)12(13)14-9-11-7-5-4-6-8-11/h4-8,10H,3,9H2,1-2H3/t10-/m0/s1

>  <InChI-Key>
PTKDIBUNVYIPOD-JTQLQIEISA-N

>  <Smiles>
CCC(C)C(OCc1ccccc1)=O

>  <Molecular Formula>
C12H16O2

$$$$
butyl-2-methylbutyrate
Actelion Java MolfileCreator 2.0

  0  0  0  0  0  0              0 V3000
M  V30 BEGIN CTAB
M  V30 COUNTS 11 10 0 0 0
M  V30 BEGIN ATOM
M  V30 1 O 0.0 0.0 0.0 0
M  V30 2 C -0.0482 1.5454 0.0 0
M  V30 3 O 1.1952 2.3302 0.0 0
M  V30 4 C -1.3884 2.3302 0.0 0 CFG=2
M  V30 5 C 2.4388 1.6178 0.0 0
M  V30 6 C -2.7286 1.6178 0.0 0
M  V30 7 C -1.4367 3.8756 0.0 0
M  V30 8 C 3.6824 2.4026 0.0 0
M  V30 9 C -4.0688 2.4026 0.0 0
M  V30 10 C 4.926 1.6782 0.0 0
M  V30 11 C 6.1696 2.463 0.0 0
M  V30 END ATOM
M  V30 BEGIN BOND
M  V30 1 2 1 2
M  V30 2 1 2 3
M  V30 3 1 2 4
M  V30 4 1 3 5
M  V30 5 1 4 6
M  V30 6 1 4 7 CFG=3
M  V30 7 1 5 8
M  V30 8 1 6 9
M  V30 9 1 8 10
M  V30 10 1 10 11
M  V30 END BOND
M  V30 BEGIN COLLECTION
M  V30 MDLV30/STERAC1 ATOMS=(1 4)
M  V30 END COLLECTION
M  V30 END CTAB
M  END
>  <Molecule Name>
butyl-2-methylbutyrate

>  <Molecule Name 2>
butyl-2-methylbutyrate

>  <Database>
Essential Oil Database

>  <InChI>
InChI=1S/C9H18O2/c1-4-6-7-11-9(10)8(3)5-2/h8H,4-7H2,1-3H3/t8-/m0/s1

>  <InChI-Key>
OTKQNSSMCDLVQV-QMMMGPOBSA-N

>  <Smiles>
CCCCOC(C(C)CC)=O

>  <Molecular Formula>
C9H18O2

$$$$
geranyl isovalerate
Actelion Java MolfileCreator 2.0

  0  0  0  0  0  0              0 V3000
M  V30 BEGIN CTAB
M  V30 COUNTS 17 16 0 0 0
M  V30 BEGIN ATOM
M  V30 1 O 0.0 0.0 0.0 0
M  V30 2 C -0.0489 1.5676 0.0 0
M  V30 3 O 1.2125 2.376 0.0 0
M  V30 4 C -1.4084 2.376 0.0 0
M  V30 5 C 2.474 1.6411 0.0 0
M  V30 6 C -2.7679 1.6411 0.0 0
M  V30 7 C 3.7355 2.4495 0.0 0
M  V30 8 C -4.1274 2.4495 0.0 0
M  V30 9 C -2.8169 0.1714 0.0 0
M  V30 10 C 4.997 1.7146 0.0 0
M  V30 11 C 6.2585 2.5107 0.0 0
M  V30 12 C 4.948 0.2449 0.0 0
M  V30 13 C 7.52 1.7758 0.0 0
M  V30 14 C 8.7815 2.5719 0.0 0
M  V30 15 C 10.043 1.8371 0.0 0
M  V30 16 C 11.3045 2.6332 0.0 0
M  V30 17 C 9.994 0.3674 0.0 0
M  V30 END ATOM
M  V30 BEGIN BOND
M  V30 1 2 1 2
M  V30 2 1 2 3
M  V30 3 1 2 4
M  V30 4 1 3 5
M  V30 5 1 4 6
M  V30 6 1 5 7
M  V30 7 1 6 8
M  V30 8 1 6 9
M  V30 9 2 7 10
M  V30 10 1 10 11
M  V30 11 1 10 12
M  V30 12 1 11 13
M  V30 13 1 13 14
M  V30 14 2 14 15
M  V30 15 1 15 16
M  V30 16 1 15 17
M  V30 END BOND
M  V30 END CTAB
M  END
>  <Molecule Name>
geranyl isovalerate

>  <Molecule Name 2>
geranyl isovalerate

>  <Database>
Essential Oil Database

>  <InChI>
InChI=1S/C15H26O2/c1-12(2)7-6-8-14(5)9-10-17-15(16)11-13(3)4/h7,9,13H,6,8,10-11H2,1-5H3/b14-9+

>  <InChI-Key>
SOUKTGNMIRUIQN-NTEUORMPSA-N

>  <Smiles>
CC(C)CC(OC/C=C(\C)/CCC=C(C)C)=O

>  <Molecular Formula>
C15H26O2

$$$$
isobutylisovalerate
Actelion Java MolfileCreator 2.0

  0  0  0  0  0  0              0 V3000
M  V30 BEGIN CTAB
M  V30 COUNTS 11 10 0 0 0
M  V30 BEGIN ATOM
M  V30 1 O 0.0 0.0 0.0 0
M  V30 2 C -0.0486 -1.4601 0.0 0
M  V30 3 O 1.2046 -2.1902 0.0 0
M  V30 4 C -1.3993 -2.1902 0.0 0
M  V30 5 C 2.4579 -1.3871 0.0 0
M  V30 6 C -2.7499 -1.3871 0.0 0
M  V30 7 C 3.7111 -2.1172 0.0 0
M  V30 8 C -4.1005 -2.1172 0.0 0
M  V30 9 C -2.7986 0.1703 0.0 0
M  V30 10 C 4.9644 -1.3141 0.0 0
M  V30 11 C 3.6625 -3.5773 0.0 0
M  V30 END ATOM
M  V30 BEGIN BOND
M  V30 1 2 1 2
M  V30 2 1 2 3
M  V30 3 1 2 4
M  V30 4 1 3 5
M  V30 5 1 4 6
M  V30 6 1 5 7
M  V30 7 1 6 8
M  V30 8 1 6 9
M  V30 9 1 7 10
M  V30 10 1 7 11
M  V30 END BOND
M  V30 END CTAB
M  END
>  <Molecule Name>
isobutylisovalerate

>  <Molecule Name 2>
isobutylisovalerate

>  <Database>
Essential Oil Database

>  <InChI>
InChI=1S/C9H18O2/c1-7(2)5-9(10)11-6-8(3)4/h7-8H,5-6H2,1-4H3

>  <InChI-Key>
KEBDNKNVCHQIJU-UHFFFAOYSA-N

>  <Smiles>
CC(C)CC(OCC(C)C)=O

>  <Molecular Formula>
C9H18O2

$$$$
p-cresol
Actelion Java MolfileCreator 2.0

  0  0  0  0  0  0              0 V3000
M  V30 BEGIN CTAB
M  V30 COUNTS 8 8 0 0 0
M  V30 BEGIN ATOM
M  V30 1 O 0.0 0.0 0.0 0
M  V30 2 C -0.0473 -1.4908 0.0 0
M  V30 3 C 1.2423 -2.1888 0.0 0
M  V30 4 C -1.4316 -2.1888 0.0 0
M  V30 5 C 1.195 -3.6797 0.0 0
M  V30 6 C -1.4789 -3.6797 0.0 0
M  V30 7 C -0.1893 -4.3777 0.0 0
M  V30 8 C -0.2366 -5.8686 0.0 0
M  V30 END ATOM
M  V30 BEGIN BOND
M  V30 1 1 1 2
M  V30 2 2 2 3
M  V30 3 1 2 4
M  V30 4 1 3 5
M  V30 5 2 4 6
M  V30 6 2 5 7
M  V30 7 1 7 8
M  V30 8 1 6 7
M  V30 END BOND
M  V30 END CTAB
M  END
>  <Molecule Name>
p-cresol

>  <Molecule Name 2>
p-cresol

>  <Database>
Essential Oil Database

>  <InChI>
InChI=1S/C7H8O/c1-6-2-4-7(8)5-3-6/h2-5,8H,1H3

>  <InChI-Key>
IWDCLRJOBJJRNH-UHFFFAOYSA-N

>  <Smiles>
Cc(cc1)ccc1O

>  <Molecular Formula>
C7H8O

$$$$
pentyl 2-methylbutyrate
Actelion Java MolfileCreator 2.0

  0  0  0  0  0  0              0 V3000
M  V30 BEGIN CTAB
M  V30 COUNTS 12 11 0 0 0
M  V30 BEGIN ATOM
M  V30 1 O 0.0 0.0 0.0 0
M  V30 2 C -0.0465 -1.4677 0.0 0
M  V30 3 O 1.2231 -2.1667 0.0 0
M  V30 4 C -1.4095 -2.1667 0.0 0 CFG=2
M  V30 5 C 2.4928 -1.3396 0.0 0
M  V30 6 C -2.7724 -1.3396 0.0 0
M  V30 7 C -1.4561 -3.6344 0.0 0
M  V30 8 C 3.7626 -2.0502 0.0 0
M  V30 9 C -4.1354 -2.0502 0.0 0
M  V30 10 C 5.0323 -1.2231 0.0 0
M  V30 11 C 6.3021 -1.922 0.0 0
M  V30 12 C 7.5718 -1.095 0.0 0
M  V30 END ATOM
M  V30 BEGIN BOND
M  V30 1 2 1 2
M  V30 2 1 2 3
M  V30 3 1 2 4
M  V30 4 1 3 5
M  V30 5 1 4 6
M  V30 6 1 4 7 CFG=1
M  V30 7 1 5 8
M  V30 8 1 6 9
M  V30 9 1 8 10
M  V30 10 1 10 11
M  V30 11 1 11 12
M  V30 END BOND
M  V30 BEGIN COLLECTION
M  V30 MDLV30/STERAC1 ATOMS=(1 4)
M  V30 END COLLECTION
M  V30 END CTAB
M  END
>  <Molecule Name>
pentyl 2-methylbutyrate

>  <Molecule Name 2>
pentyl 2-methylbutyrate

>  <Database>
Essential Oil Database

>  <InChI>
InChI=1S/C10H20O2/c1-4-6-7-8-12-10(11)9(3)5-2/h9H,4-8H2,1-3H3/t9-/m0/s1

>  <InChI-Key>
RHNBXPIJLXBHMF-VIFPVBQESA-N

>  <Smiles>
CCCCCOC(C(C)CC)=O

>  <Molecular Formula>
C10H20O2

$$$$
propyl-2-methyl butyrate
Actelion Java MolfileCreator 2.0

  0  0  0  0  0  0              0 V3000
M  V30 BEGIN CTAB
M  V30 COUNTS 10 9 0 0 0
M  V30 BEGIN ATOM
M  V30 1 O 0.0 0.0 0.0 0
M  V30 2 C -0.0465 -1.4651 0.0 0
M  V30 3 O 1.2209 -2.1628 0.0 0
M  V30 4 C -1.407 -2.1628 0.0 0 CFG=2
M  V30 5 C 2.4884 -1.3372 0.0 0
M  V30 6 C -2.7675 -1.3372 0.0 0
M  V30 7 C -1.4535 -3.6279 0.0 0
M  V30 8 C 3.7558 -2.0349 0.0 0
M  V30 9 C -4.1279 -2.0349 0.0 0
M  V30 10 C 5.0233 -1.2093 0.0 0
M  V30 END ATOM
M  V30 BEGIN BOND
M  V30 1 2 1 2
M  V30 2 1 2 3
M  V30 3 1 2 4
M  V30 4 1 3 5
M  V30 5 1 4 6
M  V30 6 1 4 7 CFG=1
M  V30 7 1 5 8
M  V30 8 1 6 9
M  V30 9 1 8 10
M  V30 END BOND
M  V30 BEGIN COLLECTION
M  V30 MDLV30/STERAC1 ATOMS=(1 4)
M  V30 END COLLECTION
M  V30 END CTAB
M  END
>  <Molecule Name>
propyl-2-methyl butyrate

>  <Molecule Name 2>
propyl-2-methyl butyrate

>  <Database>
Essential Oil Database

>  <InChI>
InChI=1S/C8H16O2/c1-4-6-10-8(9)7(3)5-2/h7H,4-6H2,1-3H3/t7-/m0/s1

>  <InChI-Key>
TZFQMSDUSOTCJC-ZETCQYMHSA-N

>  <Smiles>
CCCOC(C(C)CC)=O

>  <Molecular Formula>
C8H16O2

$$$$
butyl benzene
Actelion Java MolfileCreator 2.0

  0  0  0  0  0  0              0 V3000
M  V30 BEGIN CTAB
M  V30 COUNTS 10 10 0 0 0
M  V30 BEGIN ATOM
M  V30 1 C 0.0 0.0 0.0 0
M  V30 2 C 1.2441 -0.7126 0.0 0
M  V30 3 C -1.3407 -0.7126 0.0 0
M  V30 4 C -0.0483 1.5461 0.0 0
M  V30 5 C 1.1958 -2.1621 0.0 0
M  V30 6 C -1.389 -2.1621 0.0 0
M  V30 7 C -1.389 2.3191 0.0 0
M  V30 8 C -0.1449 -2.8747 0.0 0
M  V30 9 C -1.4373 3.8652 0.0 0
M  V30 10 C -2.7781 4.6503 0.0 0
M  V30 END ATOM
M  V30 BEGIN BOND
M  V30 1 2 1 2
M  V30 2 1 1 3
M  V30 3 1 1 4
M  V30 4 1 2 5
M  V30 5 2 3 6
M  V30 6 1 4 7
M  V30 7 2 5 8
M  V30 8 1 7 9
M  V30 9 1 9 10
M  V30 10 1 6 8
M  V30 END BOND
M  V30 END CTAB
M  END
>  <Molecule Name>
butyl benzene

>  <Molecule Name 2>
butyl benzene

>  <Database>
Essential Oil Database

>  <InChI>
InChI=1S/C10H14/c1-2-3-7-10-8-5-4-6-9-10/h4-6,8-9H,2-3,7H2,1H3

>  <InChI-Key>
OCKPCBLVNKHBMX-UHFFFAOYSA-N

>  <Smiles>
CCCCc1ccccc1

>  <Molecular Formula>
C10H14

$$$$
m-cymene-8-ol
Actelion Java MolfileCreator 2.0

  0  0  0  0  0  0              0 V3000
M  V30 BEGIN CTAB
M  V30 COUNTS 11 11 0 0 0
M  V30 BEGIN ATOM
M  V30 1 O 0.0 0.0 0.0 0
M  V30 2 C 0.6993 1.3156 0.0 0
M  V30 3 C -0.6163 2.086 0.0 0
M  V30 4 C 1.9201 0.6163 0.0 0
M  V30 5 C 1.4104 2.6313 0.0 0
M  V30 6 C -0.6637 3.6032 0.0 0
M  V30 7 C -1.932 1.3867 0.0 0
M  V30 8 C -1.9794 4.3736 0.0 0
M  V30 9 C -3.2476 2.1572 0.0 0
M  V30 10 C -3.295 3.6743 0.0 0
M  V30 11 C -2.0268 5.8908 0.0 0
M  V30 END ATOM
M  V30 BEGIN BOND
M  V30 1 1 1 2
M  V30 2 1 2 3
M  V30 3 1 2 4
M  V30 4 1 2 5
M  V30 5 2 3 6
M  V30 6 1 3 7
M  V30 7 1 6 8
M  V30 8 2 7 9
M  V30 9 2 8 10
M  V30 10 1 8 11
M  V30 11 1 9 10
M  V30 END BOND
M  V30 END CTAB
M  END
>  <Molecule Name>
m-cymene-8-ol

>  <Molecule Name 2>
m-cymene-8-ol

>  <Database>
Essential Oil Database

>  <InChI>
InChI=1S/C10H14O/c1-8-5-4-6-9(7-8)10(2,3)11/h4-7,11H,1-3H3

>  <InChI-Key>
NARIBLVZTLPQJB-UHFFFAOYSA-N

>  <Smiles>
CC(C)(c1cc(C)ccc1)O

>  <Molecular Formula>
C10H14O

$$$$
m-cymene
Actelion Java MolfileCreator 2.0

  0  0  0  0  0  0              0 V3000
M  V30 BEGIN CTAB
M  V30 COUNTS 10 10 0 0 0
M  V30 BEGIN ATOM
M  V30 1 C 0.0 0.0 0.0 0
M  V30 2 C -0.0479 1.5336 0.0 0
M  V30 3 C -1.3299 -0.7069 0.0 0
M  V30 4 C 1.2341 -0.7069 0.0 0
M  V30 5 C -1.3779 2.3005 0.0 0
M  V30 6 C -2.6599 0.0599 0.0 0
M  V30 7 C 2.4682 0.0599 0.0 0
M  V30 8 C 1.1862 -2.1447 0.0 0
M  V30 9 C -2.7079 1.5935 0.0 0
M  V30 10 C -1.4258 3.8342 0.0 0
M  V30 END ATOM
M  V30 BEGIN BOND
M  V30 1 2 1 2
M  V30 2 1 1 3
M  V30 3 1 1 4
M  V30 4 1 2 5
M  V30 5 2 3 6
M  V30 6 1 4 7
M  V30 7 1 4 8
M  V30 8 2 5 9
M  V30 9 1 5 10
M  V30 10 1 6 9
M  V30 END BOND
M  V30 END CTAB
M  END
>  <Molecule Name>
m-cymene

>  <Molecule Name 2>
m-cymene

>  <Database>
Essential Oil Database

>  <InChI>
InChI=1S/C10H14/c1-8(2)10-6-4-5-9(3)7-10/h4-8H,1-3H3

>  <InChI-Key>
XCYJPXQACVEIOS-UHFFFAOYSA-N

>  <Smiles>
CC(C)c1cc(C)ccc1

>  <Molecular Formula>
C10H14

$$$$
p-mentha-1(7),5-dien-2-ol
Actelion Java MolfileCreator 2.0

  0  0  0  0  0  0              0 V3000
M  V30 BEGIN CTAB
M  V30 COUNTS 11 11 0 0 0
M  V30 BEGIN ATOM
M  V30 1 O 0.0 0.0 0.0 0
M  V30 2 C 1.2756 -0.7307 0.0 0
M  V30 3 C 2.5512 0.0619 0.0 0
M  V30 4 C 1.226 -2.2168 0.0 0
M  V30 5 C 3.8269 -0.6687 0.0 0
M  V30 6 C 2.5017 1.6471 0.0 0
M  V30 7 C 2.5017 -2.9475 0.0 0
M  V30 8 C 3.7773 -2.1549 0.0 0
M  V30 9 C 2.4521 -4.4337 0.0 0
M  V30 10 C 3.7278 -5.1768 0.0 0
M  V30 11 C 1.0774 -5.1768 0.0 0
M  V30 END ATOM
M  V30 BEGIN BOND
M  V30 1 1 1 2
M  V30 2 1 2 3
M  V30 3 1 2 4
M  V30 4 1 3 5
M  V30 5 2 3 6
M  V30 6 1 4 7
M  V30 7 2 5 8
M  V30 8 1 7 9
M  V30 9 1 9 10
M  V30 10 1 9 11
M  V30 11 1 7 8
M  V30 END BOND
M  V30 END CTAB
M  END
>  <Molecule Name>
p-mentha-1(7),5-dien-2-ol

>  <Molecule Name 2>
p-mentha-1(7),5-dien-2-ol

>  <Database>
Essential Oil Database

>  <InChI>
InChI=1S/C10H16O/c1-7(2)9-5-4-8(3)10(11)6-9/h4-5,7,9-11H,3,6H2,1-2H3

>  <InChI-Key>
VKAGFXRPRUAOHV-UHFFFAOYSA-N

>  <Smiles>
CC(C)C(CC1O)C=CC1=C

>  <Molecular Formula>
C10H16O

$$$$
2-methyl-3-buten-2-ol
Actelion Java MolfileCreator 2.0

  0  0  0  0  0  0              0 V3000
M  V30 BEGIN CTAB
M  V30 COUNTS 6 5 0 0 0
M  V30 BEGIN ATOM
M  V30 1 O 0.0 0.0 0.0 0
M  V30 2 C -1.518 0.0474 0.0 0
M  V30 3 C -1.5655 1.5655 0.0 0
M  V30 4 C -1.5655 -1.3757 0.0 0
M  V30 5 C -3.0361 0.0948 0.0 0
M  V30 6 C -2.8819 2.3245 0.0 0
M  V30 END ATOM
M  V30 BEGIN BOND
M  V30 1 1 1 2
M  V30 2 1 2 3
M  V30 3 1 2 4
M  V30 4 1 2 5
M  V30 5 2 3 6
M  V30 END BOND
M  V30 END CTAB
M  END
>  <Molecule Name>
2-methyl-3-buten-2-ol

>  <Molecule Name 2>
2-methyl-3-buten-2-ol

>  <Database>
Essential Oil Database

>  <InChI>
InChI=1S/C5H10O/c1-4-5(2,3)6/h4,6H,1H2,2-3H3

>  <InChI-Key>
HNVRRHSXBLFLIG-UHFFFAOYSA-N

>  <Smiles>
CC(C)(C=C)O

>  <Molecular Formula>
C5H10O

$$$$
3-methyl-2-butenol
Actelion Java MolfileCreator 2.0

  0  0  0  0  0  0              0 V3000
M  V30 BEGIN CTAB
M  V30 COUNTS 6 5 0 0 0
M  V30 BEGIN ATOM
M  V30 1 O 0.0 0.0 0.0 0
M  V30 2 C 0.7154 -1.249 0.0 0
M  V30 3 C -0.0606 -2.4981 0.0 0
M  V30 4 C -1.6128 -2.4496 0.0 0
M  V30 5 C -2.4011 -3.6987 0.0 0
M  V30 6 C -2.4011 -1.1035 0.0 0
M  V30 END ATOM
M  V30 BEGIN BOND
M  V30 1 1 1 2
M  V30 2 1 2 3
M  V30 3 2 3 4
M  V30 4 1 4 5
M  V30 5 1 4 6
M  V30 END BOND
M  V30 END CTAB
M  END
>  <Molecule Name>
3-methyl-2-butenol

>  <Molecule Name 2>
3-methyl-2-butenol

>  <Database>
Essential Oil Database

>  <InChI>
InChI=1S/C5H10O/c1-5(2)3-4-6/h3,6H,4H2,1-2H3

>  <InChI-Key>
ASUAYTHWZCLXAN-UHFFFAOYSA-N

>  <Smiles>
CC(C)=CCO

>  <Molecular Formula>
C5H10O

$$$$
6-methyl-5-hepten-2-one
Actelion Java MolfileCreator 2.0

  0  0  0  0  0  0              0 V3000
M  V30 BEGIN CTAB
M  V30 COUNTS 9 8 0 0 0
M  V30 BEGIN ATOM
M  V30 1 O 0.0 0.0 0.0 0
M  V30 2 C 0.7167 -1.2512 0.0 0
M  V30 3 C -0.0607 -2.5024 0.0 0
M  V30 4 C 2.1744 -1.2026 0.0 0
M  V30 5 C -1.6156 -2.4538 0.0 0
M  V30 6 C -2.393 -3.705 0.0 0
M  V30 7 C -3.9479 -3.6564 0.0 0
M  V30 8 C -4.7375 -4.9076 0.0 0
M  V30 9 C -4.7375 -2.308 0.0 0
M  V30 END ATOM
M  V30 BEGIN BOND
M  V30 1 2 1 2
M  V30 2 1 2 3
M  V30 3 1 2 4
M  V30 4 1 3 5
M  V30 5 1 5 6
M  V30 6 2 6 7
M  V30 7 1 7 8
M  V30 8 1 7 9
M  V30 END BOND
M  V30 END CTAB
M  END
>  <Molecule Name>
6-methyl-5-hepten-2-one

>  <Molecule Name 2>
6-methyl-5-hepten-2-one

>  <Database>
Essential Oil Database

>  <InChI>
InChI=1S/C8H14O/c1-7(2)5-4-6-8(3)9/h5H,4,6H2,1-3H3

>  <InChI-Key>
UHEPJGULSIKKTP-UHFFFAOYSA-N

>  <Smiles>
CC(C)=CCCC(C)=O

>  <Molecular Formula>
C8H14O

$$$$
alpha-bourbonene
Actelion Java MolfileCreator 2.0

  0  0  0  0  0  0              0 V3000
M  V30 BEGIN CTAB
M  V30 COUNTS 15 17 0 0 0
M  V30 BEGIN ATOM
M  V30 1 C 0.0 0.0 0.0 0
M  V30 2 C 0.8102 1.2391 0.0 0
M  V30 3 C -1.4536 0.5123 0.0 0
M  V30 4 C 0.417 -1.3583 0.0 0
M  V30 5 C -0.0953 2.4783 0.0 0
M  V30 6 C -2.9787 0.56 0.0 0
M  V30 7 C -1.5012 2.0374 0.0 0
M  V30 8 C -3.0264 2.0851 0.0 0
M  V30 9 C -4.4324 0.1429 0.0 0
M  V30 10 C -4.48 2.5974 0.0 0
M  V30 11 C -2.8357 3.5864 0.0 0
M  V30 12 C -4.9447 -1.2153 0.0 0
M  V30 13 C -5.3379 1.3821 0.0 0
M  V30 14 C -6.4341 -1.4774 0.0 0
M  V30 15 C -4.0153 -2.2519 0.0 0
M  V30 END ATOM
M  V30 BEGIN BOND
M  V30 1 2 1 2
M  V30 2 1 1 3
M  V30 3 1 1 4
M  V30 4 1 2 5
M  V30 5 1 3 6
M  V30 6 1 3 7
M  V30 7 1 6 8
M  V30 8 1 6 9
M  V30 9 1 8 10
M  V30 10 1 8 11
M  V30 11 1 9 12
M  V30 12 1 9 13
M  V30 13 1 12 14
M  V30 14 1 12 15
M  V30 15 1 5 7
M  V30 16 1 7 8
M  V30 17 1 10 13
M  V30 END BOND
M  V30 END CTAB
M  END
>  <Molecule Name>
alpha-bourbonene

>  <Molecule Name 2>
alpha-bourbonene

>  <Database>
Essential Oil Database

>  <InChI>
InChI=1S/C15H24/c1-9(2)11-7-8-15(4)12-6-5-10(3)13(12)14(11)15/h5,9,11-14H,6-8H2,1-4H3

>  <InChI-Key>
FAIMMSRDTUMTQR-UHFFFAOYSA-N

>  <Smiles>
CC(C)C(CC1)C2C1(C)C1C2C(C)=CC1

>  <Molecular Formula>
C15H24

$$$$
isoamyl valerate
Actelion Java MolfileCreator 2.0

  0  0  0  0  0  0              0 V3000
M  V30 BEGIN CTAB
M  V30 COUNTS 12 11 0 0 0
M  V30 BEGIN ATOM
M  V30 1 O 0.0 0.0 0.0 0
M  V30 2 C -0.0484 1.5493 0.0 0
M  V30 3 O 1.1983 2.3361 0.0 0
M  V30 4 C -1.392 2.3361 0.0 0
M  V30 5 C 2.4451 1.6099 0.0 0
M  V30 6 C -2.7356 1.6099 0.0 0
M  V30 7 C 3.6919 2.4088 0.0 0
M  V30 8 C -4.0792 2.4088 0.0 0
M  V30 9 C 4.9386 1.6825 0.0 0
M  V30 10 C -5.4228 1.6825 0.0 0
M  V30 11 C 6.1854 2.4814 0.0 0
M  V30 12 C 4.8902 0.2299 0.0 0
M  V30 END ATOM
M  V30 BEGIN BOND
M  V30 1 2 1 2
M  V30 2 1 2 3
M  V30 3 1 2 4
M  V30 4 1 3 5
M  V30 5 1 4 6
M  V30 6 1 5 7
M  V30 7 1 6 8
M  V30 8 1 7 9
M  V30 9 1 8 10
M  V30 10 1 9 11
M  V30 11 1 9 12
M  V30 END BOND
M  V30 END CTAB
M  END
>  <Molecule Name>
isoamyl valerate

>  <Molecule Name 2>
isoamyl valerate

>  <Database>
Essential Oil Database

>  <InChI>
InChI=1S/C10H20O2/c1-4-5-6-10(11)12-8-7-9(2)3/h9H,4-8H2,1-3H3

>  <InChI-Key>
UBLAMKHIFZBBSS-UHFFFAOYSA-N

>  <Smiles>
CCCCC(OCCC(C)C)=O

>  <Molecular Formula>
C10H20O2

$$$$
alpha-longipinene
Actelion Java MolfileCreator 2.0

  0  0  0  0  0  0              0 V3000
M  V30 BEGIN CTAB
M  V30 COUNTS 15 17 0 0 0
M  V30 BEGIN ATOM
M  V30 1 C 0.0 0.0 0.0 0
M  V30 2 C -1.5702 0.4907 0.0 0
M  V30 3 C 0.368 -1.239 0.0 0
M  V30 4 C 0.9691 1.0918 0.0 0
M  V30 5 C -2.4903 -0.6747 0.0 0
M  V30 6 C -1.104 -0.4661 0.0 0
M  V30 7 C -0.2944 -2.4658 0.0 0
M  V30 8 C -1.6561 -1.8524 0.0 0
M  V30 9 C -0.2208 1.0059 0.0 0
M  V30 10 C -2.5271 0.1104 0.0 0
M  V30 11 C 1.2022 -2.2081 0.0 0
M  V30 12 C 1.2022 0.5888 0.0 0
M  V30 13 C 1.8278 -0.7728 0.0 0
M  V30 14 C 2.4658 -2.8215 0.0 0
M  V30 15 C 1.3739 -3.6067 0.0 0
M  V30 END ATOM
M  V30 BEGIN BOND
M  V30 1 2 1 2
M  V30 2 1 1 3
M  V30 3 1 1 4
M  V30 4 1 2 5
M  V30 5 1 3 6
M  V30 6 1 3 7
M  V30 7 1 5 8
M  V30 8 1 6 9
M  V30 9 1 6 10
M  V30 10 1 7 11
M  V30 11 1 9 12
M  V30 12 1 11 13
M  V30 13 1 11 14
M  V30 14 1 11 15
M  V30 15 1 6 8
M  V30 16 1 7 8
M  V30 17 1 12 13
M  V30 END BOND
M  V30 END CTAB
M  END
>  <Molecule Name>
alpha-longipinene

>  <Molecule Name 2>
alpha-longipinene

>  <Database>
Essential Oil Database

>  <InChI>
InChI=1S/C15H24/c1-10-6-7-11-13-12(10)15(11,4)9-5-8-14(13,2)3/h6,11-13H,5,7-9H2,1-4H3

>  <InChI-Key>
HICYDYJTCDBHMZ-UHFFFAOYSA-N

>  <Smiles>
CC12C3C(C)=CCC1C3C(C)(C)CCC2

>  <Molecular Formula>
C15H24

$$$$
gamma-bisabolene
Actelion Java MolfileCreator 2.0

  0  0  0  0  0  0              0 V3000
M  V30 BEGIN CTAB
M  V30 COUNTS 15 15 0 0 0
M  V30 BEGIN ATOM
M  V30 1 C 0.0 0.0 0.0 0
M  V30 2 C -0.0483 1.5461 0.0 0
M  V30 3 C -1.3408 -0.7126 0.0 0
M  V30 4 C 1.2441 -0.7126 0.0 0
M  V30 5 C -1.3891 2.3313 0.0 0
M  V30 6 C 1.1958 2.3313 0.0 0
M  V30 7 C -1.3891 -2.1622 0.0 0
M  V30 8 C 1.1958 -2.1622 0.0 0
M  V30 9 C -1.4374 3.8774 0.0 0
M  V30 10 C -0.1449 -2.8748 0.0 0
M  V30 11 C -2.7782 4.6626 0.0 0
M  V30 12 C -0.1932 -4.3244 0.0 0
M  V30 13 C -2.8265 6.2087 0.0 0
M  V30 14 C -4.1673 6.9939 0.0 0
M  V30 15 C -1.5823 6.9939 0.0 0
M  V30 END ATOM
M  V30 BEGIN BOND
M  V30 1 2 1 2 CFG=2
M  V30 2 1 1 3
M  V30 3 1 1 4
M  V30 4 1 2 5
M  V30 5 1 2 6
M  V30 6 1 3 7
M  V30 7 1 4 8
M  V30 8 1 5 9
M  V30 9 2 7 10
M  V30 10 1 9 11
M  V30 11 1 10 12
M  V30 12 2 11 13
M  V30 13 1 13 14
M  V30 14 1 13 15
M  V30 15 1 8 10
M  V30 END BOND
M  V30 END CTAB
M  END
>  <Molecule Name>
gamma-bisabolene

>  <Molecule Name 2>
gamma-bisabolene

>  <Database>
Essential Oil Database

>  <InChI>
InChI=1S/C15H24/c1-12(2)6-5-7-14(4)15-10-8-13(3)9-11-15/h6,8H,5,7,9-11H2,1-4H3

>  <InChI-Key>
XBGUIVFBMBVUEG-UHFFFAOYSA-N

>  <Smiles>
CC(C)=CCCC(C)=C1CC=C(C)CC1

>  <Molecular Formula>
C15H24

$$$$
longifolene
Actelion Java MolfileCreator 2.0

  0  0  0  0  0  0              0 V3000
M  V30 BEGIN CTAB
M  V30 COUNTS 15 17 0 0 0
M  V30 BEGIN ATOM
M  V30 1 C 0.0 0.0 0.0 0
M  V30 2 C -0.4215 1.4819 0.0 0
M  V30 3 C 1.2392 -0.5621 0.0 0
M  V30 4 C -0.8942 -1.1753 0.0 0
M  V30 5 C 0.3449 -1.8779 0.0 0
M  V30 6 C 2.7467 -0.6132 0.0 0
M  V30 7 C 1.5586 0.9198 0.0 0
M  V30 8 C 0.0511 -2.785 0.0 0
M  V30 9 C -2.1973 -1.7757 0.0 0
M  V30 10 C -1.2519 -2.8744 0.0 0
M  V30 11 C 3.4366 -1.8268 0.0 0
M  V30 12 C 1.3669 -3.641 0.0 0
M  V30 13 C 2.8489 -3.1938 0.0 0
M  V30 14 C 1.9929 -4.9057 0.0 0
M  V30 15 C 0.2044 -4.5991 0.0 0
M  V30 END ATOM
M  V30 BEGIN BOND
M  V30 1 2 1 2
M  V30 2 1 1 3
M  V30 3 1 1 4
M  V30 4 1 3 5
M  V30 5 1 3 6
M  V30 6 1 3 7
M  V30 7 1 4 8
M  V30 8 1 4 9
M  V30 9 1 5 10
M  V30 10 1 6 11
M  V30 11 1 8 12
M  V30 12 1 11 13
M  V30 13 1 12 14
M  V30 14 1 12 15
M  V30 15 1 5 8
M  V30 16 1 9 10
M  V30 17 1 12 13
M  V30 END BOND
M  V30 END CTAB
M  END
>  <Molecule Name>
longifolene

>  <Molecule Name 2>
longifolene

>  <Database>
Essential Oil Database

>  <InChI>
InChI=1S/C15H24/c1-10-11-6-7-12-13(11)14(2,3)8-5-9-15(10,12)4/h11-13H,1,5-9H2,2-4H3

>  <InChI-Key>
PDSNLYSELAIEBU-UHFFFAOYSA-N

>  <Smiles>
CC1(C(CCC23)C2C(C)(C)CCC1)C3=C

>  <Molecular Formula>
C15H24

$$$$
methyl geranate
Actelion Java MolfileCreator 2.0

  0  0  0  0  0  0              0 V3000
M  V30 BEGIN CTAB
M  V30 COUNTS 13 12 0 0 0
M  V30 BEGIN ATOM
M  V30 1 O 0.0 0.0 0.0 0
M  V30 2 C 0.723 -1.2412 0.0 0
M  V30 3 O 2.1692 -1.193 0.0 0
M  V30 4 C -0.0602 -2.4825 0.0 0
M  V30 5 C 2.8802 0.1446 0.0 0
M  V30 6 C -1.6028 -2.4343 0.0 0
M  V30 7 C -2.3861 -3.6756 0.0 0
M  V30 8 C -2.3861 -1.0966 0.0 0
M  V30 9 C -3.9287 -3.6274 0.0 0
M  V30 10 C -4.712 -4.8687 0.0 0
M  V30 11 C -6.2546 -4.8205 0.0 0
M  V30 12 C -7.038 -6.0618 0.0 0
M  V30 13 C -7.038 -3.4828 0.0 0
M  V30 END ATOM
M  V30 BEGIN BOND
M  V30 1 2 1 2
M  V30 2 1 2 3
M  V30 3 1 2 4
M  V30 4 1 3 5
M  V30 5 2 4 6
M  V30 6 1 6 7
M  V30 7 1 6 8
M  V30 8 1 7 9
M  V30 9 1 9 10
M  V30 10 2 10 11
M  V30 11 1 11 12
M  V30 12 1 11 13
M  V30 END BOND
M  V30 END CTAB
M  END
>  <Molecule Name>
methyl geranate

>  <Molecule Name 2>
methyl geranate

>  <Database>
Essential Oil Database

>  <InChI>
InChI=1S/C11H18O2/c1-9(2)6-5-7-10(3)8-11(12)13-4/h6,8H,5,7H2,1-4H3/b10-8+

>  <InChI-Key>
ACOBBFVLNKYODD-CSKARUKUSA-N

>  <Smiles>
CC(C)=CCC/C(\C)=C/C(OC)=O

>  <Molecular Formula>
C11H18O2

$$$$
(2)-4-octenyloctanoate
Actelion Java MolfileCreator 2.0

  0  0  0  0  0  0              0 V3000
M  V30 BEGIN CTAB
M  V30 COUNTS 18 17 0 0 0
M  V30 BEGIN ATOM
M  V30 1 O 0.0 0.0 0.0 0
M  V30 2 C 1.2599 -0.6935 0.0 0
M  V30 3 O 2.5198 0.1271 0.0 0 CHG=-1
M  V30 4 C 1.2137 -2.1499 0.0 0 CFG=2
M  V30 5 C 2.4736 -2.855 0.0 0
M  V30 6 C -0.1387 -2.855 0.0 0
M  V30 7 C 3.7335 -2.0344 0.0 0
M  V30 8 C -1.4911 -2.0344 0.0 0
M  V30 9 C 4.9935 -2.7279 0.0 0
M  V30 10 C -2.8435 -2.7279 0.0 0
M  V30 11 C 6.2534 -1.9072 0.0 0
M  V30 12 C -4.1959 -1.9072 0.0 0
M  V30 13 C 7.5134 -2.6007 0.0 0
M  V30 14 C -5.5483 -2.6007 0.0 0
M  V30 15 C 8.7733 -1.7801 0.0 0
M  V30 16 C -6.9007 -1.7801 0.0 0
M  V30 17 C 10.0332 -2.5083 0.0 0
M  V30 18 C 11.2932 -1.6876 0.0 0
M  V30 END ATOM
M  V30 BEGIN BOND
M  V30 1 2 1 2
M  V30 2 1 2 3
M  V30 3 1 2 4
M  V30 4 1 4 5 CFG=3
M  V30 5 1 4 6
M  V30 6 1 5 7
M  V30 7 1 6 8
M  V30 8 1 7 9
M  V30 9 1 8 10
M  V30 10 1 9 11
M  V30 11 1 10 12
M  V30 12 2 11 13 CFG=2
M  V30 13 1 12 14
M  V30 14 1 13 15
M  V30 15 1 14 16
M  V30 16 1 15 17
M  V30 17 1 17 18
M  V30 END BOND
M  V30 BEGIN COLLECTION
M  V30 MDLV30/STERAC1 ATOMS=(1 4)
M  V30 END COLLECTION
M  V30 END CTAB
M  END
>  <Molecule Name>
(2)-4-octenyloctanoate

>  <Molecule Name 2>
(2)-4-octenyloctanoate

>  <Database>
Essential Oil Database

>  <InChI>
InChI=1S/C16H30O2/c1-3-5-7-9-10-12-14-15(16(17)18)13-11-8-6-4-2/h7,9,15H,3-6,8,10-14H2,1-2H3,(H,17,18)/p-1/t15-/m0/s1

>  <InChI-Key>
ZLRDJGUNVXDFCG-HNNXBMFYSA-M

>  <Smiles>
CCCCCCC(CCCC=CCCC)C([O-])=O

>  <Molecular Formula>
C16H29O2

$$$$
2-methylbutylpropionate
Actelion Java MolfileCreator 2.0

  0  0  0  0  0  0              0 V3000
M  V30 BEGIN CTAB
M  V30 COUNTS 10 9 0 0 0
M  V30 BEGIN ATOM
M  V30 1 O 0.0 0.0 0.0 0
M  V30 2 C -0.0483 1.5482 0.0 0
M  V30 3 O -1.3909 2.3344 0.0 0 CHG=-1
M  V30 4 C 1.1974 2.3344 0.0 0
M  V30 5 C 2.4433 1.6087 0.0 0
M  V30 6 C 1.149 3.8826 0.0 0
M  V30 7 C 3.6891 2.3949 0.0 0
M  V30 8 C 4.935 1.6812 0.0 0
M  V30 9 C 3.6407 3.9431 0.0 0
M  V30 10 C 6.1808 2.4675 0.0 0
M  V30 END ATOM
M  V30 BEGIN BOND
M  V30 1 2 1 2
M  V30 2 1 2 3
M  V30 3 1 2 4
M  V30 4 1 4 5
M  V30 5 1 4 6
M  V30 6 1 5 7
M  V30 7 1 7 8
M  V30 8 1 7 9
M  V30 9 1 8 10
M  V30 END BOND
M  V30 END CTAB
M  END
>  <Molecule Name>
2-methylbutylpropionate

>  <Molecule Name 2>
2-methylbutylpropionate

>  <Database>
Essential Oil Database

>  <InChI>
InChI=1S/C8H16O2/c1-4-6(2)5-7(3)8(9)10/h6-7H,4-5H2,1-3H3,(H,9,10)/p-1

>  <InChI-Key>
GMWSHXONQKXRHS-UHFFFAOYSA-M

>  <Smiles>
CCC(C)CC(C)C([O-])=O

>  <Molecular Formula>
C8H15O2

$$$$
3-methylbutyl butyrate
Actelion Java MolfileCreator 2.0

  0  0  0  0  0  0              0 V3000
M  V30 BEGIN CTAB
M  V30 COUNTS 11 10 0 0 0
M  V30 BEGIN ATOM
M  V30 1 O 0.0 0.0 0.0 0
M  V30 2 C -0.0485 1.5542 0.0 0
M  V30 3 O 1.202 2.3434 0.0 0
M  V30 4 C -1.3963 2.3434 0.0 0
M  V30 5 C 2.4527 1.6149 0.0 0
M  V30 6 C -2.7441 1.6149 0.0 0
M  V30 7 C 3.7033 2.4041 0.0 0
M  V30 8 C -4.0919 2.4041 0.0 0
M  V30 9 C 4.954 1.6756 0.0 0
M  V30 10 C 6.2046 2.4648 0.0 0
M  V30 11 C 4.9054 0.2185 0.0 0
M  V30 END ATOM
M  V30 BEGIN BOND
M  V30 1 2 1 2
M  V30 2 1 2 3
M  V30 3 1 2 4
M  V30 4 1 3 5
M  V30 5 1 4 6
M  V30 6 1 5 7
M  V30 7 1 6 8
M  V30 8 1 7 9
M  V30 9 1 9 10
M  V30 10 1 9 11
M  V30 END BOND
M  V30 END CTAB
M  END
>  <Molecule Name>
3-methylbutyl butyrate

>  <Molecule Name 2>
3-methylbutyl butyrate

>  <Database>
Essential Oil Database

>  <InChI>
InChI=1S/C9H18O2/c1-4-5-9(10)11-7-6-8(2)3/h8H,4-7H2,1-3H3

>  <InChI-Key>
PQLMXFQTAMDXIZ-UHFFFAOYSA-N

>  <Smiles>
CCCC(OCCC(C)C)=O

>  <Molecular Formula>
C9H18O2

$$$$
angelicin
Actelion Java MolfileCreator 2.0

  0  0  0  0  0  0              0 V3000
M  V30 BEGIN CTAB
M  V30 COUNTS 14 16 0 0 0
M  V30 BEGIN ATOM
M  V30 1 O 0.0 0.0 0.0 0
M  V30 2 C -0.8225 -1.2217 0.0 0
M  V30 3 O -2.3708 -1.1249 0.0 0
M  V30 4 C -0.1451 -2.4918 0.0 0
M  V30 5 C -3.1934 -2.3466 0.0 0
M  V30 6 C -0.9677 -3.7135 0.0 0
M  V30 7 C -2.516 -3.6167 0.0 0
M  V30 8 C -4.7417 -2.2499 0.0 0
M  V30 9 C -3.3385 -4.8385 0.0 0
M  V30 10 C -5.5642 -3.4716 0.0 0
M  V30 11 C -5.7457 -1.0644 0.0 0
M  V30 12 C -4.8869 -4.7417 0.0 0
M  V30 13 O -7.0642 -3.0603 0.0 0
M  V30 14 C -7.1852 -1.5967 0.0 0
M  V30 END ATOM
M  V30 BEGIN BOND
M  V30 1 2 1 2
M  V30 2 1 2 3
M  V30 3 1 2 4
M  V30 4 1 3 5
M  V30 5 2 4 6
M  V30 6 2 5 7
M  V30 7 1 5 8
M  V30 8 1 7 9
M  V30 9 2 8 10
M  V30 10 1 8 11
M  V30 11 2 9 12
M  V30 12 1 10 13
M  V30 13 2 11 14
M  V30 14 1 6 7
M  V30 15 1 10 12
M  V30 16 1 13 14
M  V30 END BOND
M  V30 END CTAB
M  END
>  <Molecule Name>
angelicin

>  <Molecule Name 2>
angelicin

>  <Database>
Essential Oil Database

>  <InChI>
InChI=1S/C11H6O3/c12-10-4-2-7-1-3-9-8(5-6-13-9)11(7)14-10/h1-6H

>  <InChI-Key>
XDROKJSWHURZGO-UHFFFAOYSA-N

>  <Smiles>
O=C1Oc(c2c(cc3)[o]cc2)c3C=C1

>  <Molecular Formula>
C11H6O3

$$$$
benzyl hexanoate
Actelion Java MolfileCreator 2.0

  0  0  0  0  0  0              0 V3000
M  V30 BEGIN CTAB
M  V30 COUNTS 15 15 0 0 0
M  V30 BEGIN ATOM
M  V30 1 O 0.0 0.0 0.0 0
M  V30 2 C -0.0464 -1.4642 0.0 0
M  V30 3 O 1.2202 -2.1614 0.0 0
M  V30 4 C -1.4061 -2.1614 0.0 0
M  V30 5 C 2.4868 -1.3364 0.0 0
M  V30 6 C -2.7657 -1.3364 0.0 0
M  V30 7 C 3.7535 -2.0336 0.0 0
M  V30 8 C -4.1254 -2.0336 0.0 0
M  V30 9 C 5.0202 -1.2085 0.0 0
M  V30 10 C 3.707 -3.4979 0.0 0
M  V30 11 C -5.485 -1.2085 0.0 0
M  V30 12 C 6.2869 -1.929 0.0 0
M  V30 13 C 4.9737 -4.2067 0.0 0
M  V30 14 C -6.8447 -1.929 0.0 0
M  V30 15 C 6.2404 -3.3933 0.0 0
M  V30 END ATOM
M  V30 BEGIN BOND
M  V30 1 2 1 2
M  V30 2 1 2 3
M  V30 3 1 2 4
M  V30 4 1 3 5
M  V30 5 1 4 6
M  V30 6 1 5 7
M  V30 7 1 6 8
M  V30 8 2 7 9
M  V30 9 1 7 10
M  V30 10 1 8 11
M  V30 11 1 9 12
M  V30 12 2 10 13
M  V30 13 1 11 14
M  V30 14 2 12 15
M  V30 15 1 13 15
M  V30 END BOND
M  V30 END CTAB
M  END
>  <Molecule Name>
benzyl hexanoate

>  <Molecule Name 2>
benzyl hexanoate

>  <Database>
Essential Oil Database

>  <InChI>
InChI=1S/C13H18O2/c1-2-3-5-10-13(14)15-11-12-8-6-4-7-9-12/h4,6-9H,2-3,5,10-11H2,1H3

>  <InChI-Key>
HRSXWUSONDBHSP-UHFFFAOYSA-N

>  <Smiles>
CCCCCC(OCc1ccccc1)=O

>  <Molecular Formula>
C13H18O2

$$$$
benzyl isobutyrate
Actelion Java MolfileCreator 2.0

  0  0  0  0  0  0              0 V3000
M  V30 BEGIN CTAB
M  V30 COUNTS 13 13 0 0 0
M  V30 BEGIN ATOM
M  V30 1 O 0.0 0.0 0.0 0
M  V30 2 C -0.0469 -1.4801 0.0 0
M  V30 3 O 1.2334 -2.1849 0.0 0
M  V30 4 C -1.4213 -2.1849 0.0 0
M  V30 5 C 2.5138 -1.3508 0.0 0
M  V30 6 C -2.7957 -1.3508 0.0 0
M  V30 7 C -1.4683 -3.665 0.0 0
M  V30 8 C 3.7942 -2.0674 0.0 0
M  V30 9 C 5.0746 -1.2334 0.0 0
M  V30 10 C 3.7472 -3.5475 0.0 0
M  V30 11 C 6.355 -1.9382 0.0 0
M  V30 12 C 5.0276 -4.2406 0.0 0
M  V30 13 C 6.3081 -3.4183 0.0 0
M  V30 END ATOM
M  V30 BEGIN BOND
M  V30 1 2 1 2
M  V30 2 1 2 3
M  V30 3 1 2 4
M  V30 4 1 3 5
M  V30 5 1 4 6
M  V30 6 1 4 7
M  V30 7 1 5 8
M  V30 8 2 8 9
M  V30 9 1 8 10
M  V30 10 1 9 11
M  V30 11 2 10 12
M  V30 12 2 11 13
M  V30 13 1 12 13
M  V30 END BOND
M  V30 END CTAB
M  END
>  <Molecule Name>
benzyl isobutyrate

>  <Molecule Name 2>
benzyl isobutyrate

>  <Database>
Essential Oil Database

>  <InChI>
InChI=1S/C11H14O2/c1-9(2)11(12)13-8-10-6-4-3-5-7-10/h3-7,9H,8H2,1-2H3

>  <InChI-Key>
UIKJRDSCEYGECG-UHFFFAOYSA-N

>  <Smiles>
CC(C)C(OCc1ccccc1)=O

>  <Molecular Formula>
C11H14O2

$$$$
heptyl-2-methyl butyrate
Actelion Java MolfileCreator 2.0

  0  0  0  0  0  0              0 V3000
M  V30 BEGIN CTAB
M  V30 COUNTS 14 13 0 0 0
M  V30 BEGIN ATOM
M  V30 1 O 0.0 0.0 0.0 0
M  V30 2 C -0.0466 -1.4704 0.0 0
M  V30 3 O 1.2253 -2.1823 0.0 0
M  V30 4 C -1.412 -2.1823 0.0 0 CFG=2
M  V30 5 C 2.4974 -1.3537 0.0 0
M  V30 6 C -2.7774 -1.3537 0.0 0
M  V30 7 C -1.4587 -3.6527 0.0 0
M  V30 8 C 3.7694 -2.0539 0.0 0
M  V30 9 C -4.1428 -2.0539 0.0 0
M  V30 10 C 5.0414 -1.2253 0.0 0
M  V30 11 C 6.3135 -1.9255 0.0 0
M  V30 12 C 7.5855 -1.0969 0.0 0
M  V30 13 C 8.8576 -1.7971 0.0 0
M  V30 14 C 10.1296 -0.9686 0.0 0
M  V30 END ATOM
M  V30 BEGIN BOND
M  V30 1 2 1 2
M  V30 2 1 2 3
M  V30 3 1 2 4
M  V30 4 1 3 5
M  V30 5 1 4 6
M  V30 6 1 4 7 CFG=1
M  V30 7 1 5 8
M  V30 8 1 6 9
M  V30 9 1 8 10
M  V30 10 1 10 11
M  V30 11 1 11 12
M  V30 12 1 12 13
M  V30 13 1 13 14
M  V30 END BOND
M  V30 BEGIN COLLECTION
M  V30 MDLV30/STERAC1 ATOMS=(1 4)
M  V30 END COLLECTION
M  V30 END CTAB
M  END
>  <Molecule Name>
heptyl-2-methyl butyrate

>  <Molecule Name 2>
heptyl-2-methyl butyrate

>  <Database>
Essential Oil Database

>  <InChI>
InChI=1S/C12H24O2/c1-4-6-7-8-9-10-14-12(13)11(3)5-2/h11H,4-10H2,1-3H3/t11-/m0/s1

>  <InChI-Key>
CSFWIAGTSVOEOD-NSHDSACASA-N

>  <Smiles>
CCCCCCCOC(C(C)CC)=O

>  <Molecular Formula>
C12H24O2

$$$$
heptyl octanoate
Actelion Java MolfileCreator 2.0

  0  0  0  0  0  0              0 V3000
M  V30 BEGIN CTAB
M  V30 COUNTS 17 16 0 0 0
M  V30 BEGIN ATOM
M  V30 1 O 0.0 0.0 0.0 0
M  V30 2 C -0.0463 -1.4586 0.0 0
M  V30 3 O 1.2155 -2.1416 0.0 0
M  V30 4 C -1.4007 -2.1416 0.0 0
M  V30 5 C 2.4773 -1.3312 0.0 0
M  V30 6 C -2.7552 -1.3312 0.0 0
M  V30 7 C 3.7392 -2.0143 0.0 0
M  V30 8 C -4.1096 -2.0143 0.0 0
M  V30 9 C 5.001 -1.2039 0.0 0
M  V30 10 C -5.4641 -1.2039 0.0 0
M  V30 11 C 6.2628 -1.8869 0.0 0
M  V30 12 C -6.8185 -1.8869 0.0 0
M  V30 13 C 7.5247 -1.0766 0.0 0
M  V30 14 C -8.173 -1.0766 0.0 0
M  V30 15 C 8.7865 -1.7596 0.0 0
M  V30 16 C -9.5274 -1.7596 0.0 0
M  V30 17 C 10.0484 -0.9492 0.0 0
M  V30 END ATOM
M  V30 BEGIN BOND
M  V30 1 2 1 2
M  V30 2 1 2 3
M  V30 3 1 2 4
M  V30 4 1 3 5
M  V30 5 1 4 6
M  V30 6 1 5 7
M  V30 7 1 6 8
M  V30 8 1 7 9
M  V30 9 1 8 10
M  V30 10 1 9 11
M  V30 11 1 10 12
M  V30 12 1 11 13
M  V30 13 1 12 14
M  V30 14 1 13 15
M  V30 15 1 14 16
M  V30 16 1 15 17
M  V30 END BOND
M  V30 END CTAB
M  END
>  <Molecule Name>
heptyl octanoate

>  <Molecule Name 2>
heptyl octanoate

>  <Database>
Essential Oil Database

>  <InChI>
InChI=1S/C15H30O2/c1-3-5-7-9-11-13-15(16)17-14-12-10-8-6-4-2/h3-14H2,1-2H3

>  <InChI-Key>
TZXWLJYLYILFGM-UHFFFAOYSA-N

>  <Smiles>
CCCCCCCC(OCCCCCCC)=O

>  <Molecular Formula>
C15H30O2

$$$$
isobutyl hexanoate
Actelion Java MolfileCreator 2.0

  0  0  0  0  0  0              0 V3000
M  V30 BEGIN CTAB
M  V30 COUNTS 12 11 0 0 0
M  V30 BEGIN ATOM
M  V30 1 O 0.0 0.0 0.0 0
M  V30 2 C -0.0459 -1.4487 0.0 0
M  V30 3 O 1.2073 -2.1616 0.0 0
M  V30 4 C -1.3912 -2.1616 0.0 0
M  V30 5 C 2.4606 -1.3452 0.0 0
M  V30 6 C -2.7365 -1.3452 0.0 0
M  V30 7 C 3.7138 -2.0696 0.0 0
M  V30 8 C -4.0818 -2.0696 0.0 0
M  V30 9 C 4.9671 -1.2532 0.0 0
M  V30 10 C 3.6679 -3.5184 0.0 0
M  V30 11 C -5.4271 -1.2532 0.0 0
M  V30 12 C -6.7724 -1.9661 0.0 0
M  V30 END ATOM
M  V30 BEGIN BOND
M  V30 1 2 1 2
M  V30 2 1 2 3
M  V30 3 1 2 4
M  V30 4 1 3 5
M  V30 5 1 4 6
M  V30 6 1 5 7
M  V30 7 1 6 8
M  V30 8 1 7 9
M  V30 9 1 7 10
M  V30 10 1 8 11
M  V30 11 1 11 12
M  V30 END BOND
M  V30 END CTAB
M  END
>  <Molecule Name>
isobutyl hexanoate

>  <Molecule Name 2>
isobutyl hexanoate

>  <Database>
Essential Oil Database

>  <InChI>
InChI=1S/C10H20O2/c1-4-5-6-7-10(11)12-8-9(2)3/h9H,4-8H2,1-3H3

>  <InChI-Key>
UXUPPWPIGVTVQI-UHFFFAOYSA-N

>  <Smiles>
CCCCCC(OCC(C)C)=O

>  <Molecular Formula>
C10H20O2

$$$$
isopropyl-2-methylbutyrate
Actelion Java MolfileCreator 2.0

  0  0  0  0  0  0              0 V3000
M  V30 BEGIN CTAB
M  V30 COUNTS 10 9 0 0 0
M  V30 BEGIN ATOM
M  V30 1 O 0.0 0.0 0.0 0
M  V30 2 C -0.0481 1.5395 0.0 0
M  V30 3 O 1.1907 2.3213 0.0 0
M  V30 4 C -1.3831 2.3213 0.0 0 CFG=2
M  V30 5 C 2.4295 1.5996 0.0 0
M  V30 6 C -2.7182 1.5996 0.0 0
M  V30 7 C -1.4312 3.8608 0.0 0
M  V30 8 C 3.6684 2.3814 0.0 0
M  V30 9 C 2.3814 0.1563 0.0 0
M  V30 10 C -4.0532 2.3814 0.0 0
M  V30 END ATOM
M  V30 BEGIN BOND
M  V30 1 2 1 2
M  V30 2 1 2 3
M  V30 3 1 2 4
M  V30 4 1 3 5
M  V30 5 1 4 6
M  V30 6 1 4 7 CFG=3
M  V30 7 1 5 8
M  V30 8 1 5 9
M  V30 9 1 6 10
M  V30 END BOND
M  V30 BEGIN COLLECTION
M  V30 MDLV30/STERAC1 ATOMS=(1 4)
M  V30 END COLLECTION
M  V30 END CTAB
M  END
>  <Molecule Name>
isopropyl-2-methylbutyrate

>  <Molecule Name 2>
isopropyl-2-methylbutyrate

>  <Database>
Essential Oil Database

>  <InChI>
InChI=1S/C8H16O2/c1-5-7(4)8(9)10-6(2)3/h6-7H,5H2,1-4H3/t7-/m0/s1

>  <InChI-Key>
DIRDKDDFAMNBNY-ZETCQYMHSA-N

>  <Smiles>
CCC(C)C(OC(C)C)=O

>  <Molecular Formula>
C8H16O2

$$$$
isopropyl-3-methylbutyrate
Actelion Java MolfileCreator 2.0

  0  0  0  0  0  0              0 V3000
M  V30 BEGIN CTAB
M  V30 COUNTS 10 9 0 0 0
M  V30 BEGIN ATOM
M  V30 1 O 0.0 0.0 0.0 0
M  V30 2 C -0.0484 1.5505 0.0 0
M  V30 3 O 1.1992 2.3379 0.0 0
M  V30 4 C -1.393 2.3379 0.0 0
M  V30 5 C 2.4469 1.6111 0.0 0
M  V30 6 C -2.7377 1.6111 0.0 0
M  V30 7 C 3.6947 2.3985 0.0 0
M  V30 8 C 2.3985 0.1574 0.0 0
M  V30 9 C -4.0823 2.3985 0.0 0
M  V30 10 C -2.7861 0.1574 0.0 0
M  V30 END ATOM
M  V30 BEGIN BOND
M  V30 1 2 1 2
M  V30 2 1 2 3
M  V30 3 1 2 4
M  V30 4 1 3 5
M  V30 5 1 4 6
M  V30 6 1 5 7
M  V30 7 1 5 8
M  V30 8 1 6 9
M  V30 9 1 6 10
M  V30 END BOND
M  V30 END CTAB
M  END
>  <Molecule Name>
isopropyl-3-methylbutyrate

>  <Molecule Name 2>
isopropyl-3-methylbutyrate

>  <Database>
Essential Oil Database

>  <InChI>
InChI=1S/C8H16O2/c1-6(2)5-8(9)10-7(3)4/h6-7H,5H2,1-4H3

>  <InChI-Key>
ZOIRKXLFEHOVER-UHFFFAOYSA-N

>  <Smiles>
CC(C)CC(OC(C)C)=O

>  <Molecular Formula>
C8H16O2

$$$$
isopropyl butyrate
Actelion Java MolfileCreator 2.0

  0  0  0  0  0  0              0 V3000
M  V30 BEGIN CTAB
M  V30 COUNTS 9 8 0 0 0
M  V30 BEGIN ATOM
M  V30 1 O 0.0 0.0 0.0 0
M  V30 2 C -0.0482 1.5447 0.0 0
M  V30 3 O 1.1947 2.3291 0.0 0
M  V30 4 C -1.3878 2.3291 0.0 0
M  V30 5 C 2.4377 1.605 0.0 0
M  V30 6 C -2.7273 1.605 0.0 0
M  V30 7 C 3.6807 2.3894 0.0 0
M  V30 8 C 2.3894 0.1568 0.0 0
M  V30 9 C -4.0669 2.3894 0.0 0
M  V30 END ATOM
M  V30 BEGIN BOND
M  V30 1 2 1 2
M  V30 2 1 2 3
M  V30 3 1 2 4
M  V30 4 1 3 5
M  V30 5 1 4 6
M  V30 6 1 5 7
M  V30 7 1 5 8
M  V30 8 1 6 9
M  V30 END BOND
M  V30 END CTAB
M  END
>  <Molecule Name>
isopropyl butyrate

>  <Molecule Name 2>
isopropyl butyrate

>  <Database>
Essential Oil Database

>  <InChI>
InChI=1S/C7H14O2/c1-4-5-7(8)9-6(2)3/h6H,4-5H2,1-3H3

>  <InChI-Key>
FFOPEPMHKILNIT-UHFFFAOYSA-N

>  <Smiles>
CCCC(OC(C)C)=O

>  <Molecular Formula>
C7H14O2

$$$$
isopropyl hexanoate
Actelion Java MolfileCreator 2.0

  0  0  0  0  0  0              0 V3000
M  V30 BEGIN CTAB
M  V30 COUNTS 11 10 0 0 0
M  V30 BEGIN ATOM
M  V30 1 O 0.0 0.0 0.0 0
M  V30 2 C -0.048 1.537 0.0 0
M  V30 3 O 1.1887 2.3175 0.0 0
M  V30 4 C -1.3809 2.3175 0.0 0
M  V30 5 C 2.4256 1.597 0.0 0
M  V30 6 C -2.7137 1.597 0.0 0
M  V30 7 C 3.6624 2.3775 0.0 0
M  V30 8 C 2.3775 0.1561 0.0 0
M  V30 9 C -4.0466 2.3775 0.0 0
M  V30 10 C -5.3795 1.657 0.0 0
M  V30 11 C -6.7124 2.4376 0.0 0
M  V30 END ATOM
M  V30 BEGIN BOND
M  V30 1 2 1 2
M  V30 2 1 2 3
M  V30 3 1 2 4
M  V30 4 1 3 5
M  V30 5 1 4 6
M  V30 6 1 5 7
M  V30 7 1 5 8
M  V30 8 1 6 9
M  V30 9 1 9 10
M  V30 10 1 10 11
M  V30 END BOND
M  V30 END CTAB
M  END
>  <Molecule Name>
isopropyl hexanoate

>  <Molecule Name 2>
isopropyl hexanoate

>  <Database>
Essential Oil Database

>  <InChI>
InChI=1S/C9H18O2/c1-4-5-6-7-9(10)11-8(2)3/h8H,4-7H2,1-3H3

>  <InChI-Key>
JSHDAORXSNJOBA-UHFFFAOYSA-N

>  <Smiles>
CCCCCC(OC(C)C)=O

>  <Molecular Formula>
C9H18O2

$$$$
isopropyl isobutyrate
Actelion Java MolfileCreator 2.0

  0  0  0  0  0  0              0 V3000
M  V30 BEGIN CTAB
M  V30 COUNTS 9 8 0 0 0
M  V30 BEGIN ATOM
M  V30 1 O 0.0 0.0 0.0 0
M  V30 2 C -0.0483 1.5471 0.0 0
M  V30 3 O 1.1965 2.3327 0.0 0
M  V30 4 C -1.3899 2.3327 0.0 0
M  V30 5 C 2.4415 1.6196 0.0 0
M  V30 6 C -2.7316 1.6196 0.0 0
M  V30 7 C -1.4383 3.8798 0.0 0
M  V30 8 C 3.6864 2.4052 0.0 0
M  V30 9 C 2.3931 0.1692 0.0 0
M  V30 END ATOM
M  V30 BEGIN BOND
M  V30 1 2 1 2
M  V30 2 1 2 3
M  V30 3 1 2 4
M  V30 4 1 3 5
M  V30 5 1 4 6
M  V30 6 1 4 7
M  V30 7 1 5 8
M  V30 8 1 5 9
M  V30 END BOND
M  V30 END CTAB
M  END
>  <Molecule Name>
isopropyl isobutyrate

>  <Molecule Name 2>
isopropyl isobutyrate

>  <Database>
Essential Oil Database

>  <InChI>
InChI=1S/C7H14O2/c1-5(2)7(8)9-6(3)4/h5-6H,1-4H3

>  <InChI-Key>
WVRPFQGZHKZCEB-UHFFFAOYSA-N

>  <Smiles>
CC(C)C(OC(C)C)=O

>  <Molecular Formula>
C7H14O2

$$$$
methyl octanoate
Actelion Java MolfileCreator 2.0

  0  0  0  0  0  0              0 V3000
M  V30 BEGIN CTAB
M  V30 COUNTS 11 10 0 0 0
M  V30 BEGIN ATOM
M  V30 1 O 0.0 0.0 0.0 0
M  V30 2 C -0.0453 -1.4293 0.0 0
M  V30 3 O 1.1911 -2.144 0.0 0
M  V30 4 C -1.3726 -2.144 0.0 0
M  V30 5 C 2.4276 -1.3385 0.0 0
M  V30 6 C -2.6998 -1.3385 0.0 0
M  V30 7 C -4.0271 -2.0532 0.0 0
M  V30 8 C -5.3543 -1.2478 0.0 0
M  V30 9 C -6.6816 -1.9511 0.0 0
M  V30 10 C -8.0088 -1.1457 0.0 0
M  V30 11 C -9.3361 -1.8263 0.0 0
M  V30 END ATOM
M  V30 BEGIN BOND
M  V30 1 2 1 2
M  V30 2 1 2 3
M  V30 3 1 2 4
M  V30 4 1 3 5
M  V30 5 1 4 6
M  V30 6 1 6 7
M  V30 7 1 7 8
M  V30 8 1 8 9
M  V30 9 1 9 10
M  V30 10 1 10 11
M  V30 END BOND
M  V30 END CTAB
M  END
>  <Molecule Name>
methyl octanoate

>  <Molecule Name 2>
methyl octanoate

>  <Database>
Essential Oil Database

>  <InChI>
InChI=1S/C9H18O2/c1-3-4-5-6-7-8-9(10)11-2/h3-8H2,1-2H3

>  <InChI-Key>
JGHZJRVDZXSNKQ-UHFFFAOYSA-N

>  <Smiles>
CCCCCCCC(OC)=O

>  <Molecular Formula>
C9H18O2

$$$$
nony lacetate
Actelion Java MolfileCreator 2.0

  0  0  0  0  0  0              0 V3000
M  V30 BEGIN CTAB
M  V30 COUNTS 13 12 0 0 0
M  V30 BEGIN ATOM
M  V30 1 O 0.0 0.0 0.0 0
M  V30 2 C -0.0468 -1.4766 0.0 0
M  V30 3 O -1.418 -2.215 0.0 0 CHG=-1
M  V30 4 C 1.2305 -2.215 0.0 0
M  V30 5 C 2.5079 -1.3829 0.0 0
M  V30 6 C 3.7854 -2.0978 0.0 0
M  V30 7 C 5.0628 -1.2657 0.0 0
M  V30 8 C 6.3403 -1.9806 0.0 0
M  V30 9 C 7.6177 -1.1485 0.0 0
M  V30 10 C 8.8951 -1.8634 0.0 0
M  V30 11 C 10.1726 -1.0313 0.0 0
M  V30 12 C 11.45 -1.7696 0.0 0
M  V30 13 C 12.7274 -0.9375 0.0 0
M  V30 END ATOM
M  V30 BEGIN BOND
M  V30 1 2 1 2
M  V30 2 1 2 3
M  V30 3 1 2 4
M  V30 4 1 4 5
M  V30 5 1 5 6
M  V30 6 1 6 7
M  V30 7 1 7 8
M  V30 8 1 8 9
M  V30 9 1 9 10
M  V30 10 1 10 11
M  V30 11 1 11 12
M  V30 12 1 12 13
M  V30 END BOND
M  V30 END CTAB
M  END
>  <Molecule Name>
nony lacetate

>  <Molecule Name 2>
nony lacetate

>  <Database>
Essential Oil Database

>  <InChI>
InChI=1S/C11H22O2/c1-2-3-4-5-6-7-8-9-10-11(12)13/h2-10H2,1H3,(H,12,13)/p-1

>  <InChI-Key>
ZDPHROOEEOARMN-UHFFFAOYSA-M

>  <Smiles>
CCCCCCCCCCC([O-])=O

>  <Molecular Formula>
C11H21O2

$$$$
octyl formate
Actelion Java MolfileCreator 2.0

  0  0  0  0  0  0              0 V3000
M  V30 BEGIN CTAB
M  V30 COUNTS 11 10 0 0 0
M  V30 BEGIN ATOM
M  V30 1 O 0.0 0.0 0.0 0
M  V30 2 C 1.284 -0.7337 0.0 0
M  V30 3 O 2.5681 0.0815 0.0 0
M  V30 4 C 3.8522 -0.6522 0.0 0
M  V30 5 C 5.1363 0.163 0.0 0
M  V30 6 C 6.4204 -0.5707 0.0 0
M  V30 7 C 7.7045 0.2445 0.0 0
M  V30 8 C 8.9886 -0.4891 0.0 0
M  V30 9 C 10.2727 0.3261 0.0 0
M  V30 10 C 11.5568 -0.4076 0.0 0
M  V30 11 C 12.8408 0.4076 0.0 0
M  V30 END ATOM
M  V30 BEGIN BOND
M  V30 1 2 1 2
M  V30 2 1 2 3
M  V30 3 1 3 4
M  V30 4 1 4 5
M  V30 5 1 5 6
M  V30 6 1 6 7
M  V30 7 1 7 8
M  V30 8 1 8 9
M  V30 9 1 9 10
M  V30 10 1 10 11
M  V30 END BOND
M  V30 END CTAB
M  END
>  <Molecule Name>
octyl formate

>  <Molecule Name 2>
octyl formate

>  <Database>
Essential Oil Database

>  <InChI>
InChI=1S/C9H18O2/c1-2-3-4-5-6-7-8-11-9-10/h9H,2-8H2,1H3

>  <InChI-Key>
AVBRYQRTMPHARE-UHFFFAOYSA-N

>  <Smiles>
CCCCCCCCOC=O

>  <Molecular Formula>
C9H18O2

$$$$
octyl octanoate
Actelion Java MolfileCreator 2.0

  0  0  0  0  0  0              0 V3000
M  V30 BEGIN CTAB
M  V30 COUNTS 18 17 0 0 0
M  V30 BEGIN ATOM
M  V30 1 O 0.0 0.0 0.0 0
M  V30 2 C -0.0484 1.5499 0.0 0
M  V30 3 O 1.1987 2.3249 0.0 0
M  V30 4 C -1.3925 2.3249 0.0 0
M  V30 5 C 2.446 1.5983 0.0 0
M  V30 6 C -2.7366 1.5983 0.0 0
M  V30 7 C 3.6932 2.3854 0.0 0
M  V30 8 C -4.0807 2.3854 0.0 0
M  V30 9 C 4.9404 1.6589 0.0 0
M  V30 10 C -5.4248 1.6589 0.0 0
M  V30 11 C 6.1877 2.446 0.0 0
M  V30 12 C -6.7689 2.446 0.0 0
M  V30 13 C 7.4349 1.7194 0.0 0
M  V30 14 C -8.113 1.7194 0.0 0
M  V30 15 C 8.6821 2.5065 0.0 0
M  V30 16 C -9.4571 2.5065 0.0 0
M  V30 17 C 9.9293 1.78 0.0 0
M  V30 18 C 11.1766 2.5671 0.0 0
M  V30 END ATOM
M  V30 BEGIN BOND
M  V30 1 2 1 2
M  V30 2 1 2 3
M  V30 3 1 2 4
M  V30 4 1 3 5
M  V30 5 1 4 6
M  V30 6 1 5 7
M  V30 7 1 6 8
M  V30 8 1 7 9
M  V30 9 1 8 10
M  V30 10 1 9 11
M  V30 11 1 10 12
M  V30 12 1 11 13
M  V30 13 1 12 14
M  V30 14 1 13 15
M  V30 15 1 14 16
M  V30 16 1 15 17
M  V30 17 1 17 18
M  V30 END BOND
M  V30 END CTAB
M  END
>  <Molecule Name>
octyl octanoate

>  <Molecule Name 2>
octyl octanoate

>  <Database>
Essential Oil Database

>  <InChI>
InChI=1S/C16H32O2/c1-3-5-7-9-11-13-15-18-16(17)14-12-10-8-6-4-2/h3-15H2,1-2H3

>  <InChI-Key>
DJNTZVRUYMHBTD-UHFFFAOYSA-N

>  <Smiles>
CCCCCCCCOC(CCCCCCC)=O

>  <Molecular Formula>
C16H32O2

$$$$
octyl propionate
Actelion Java MolfileCreator 2.0

  0  0  0  0  0  0              0 V3000
M  V30 BEGIN CTAB
M  V30 COUNTS 13 12 0 0 0
M  V30 BEGIN ATOM
M  V30 1 O 0.0 0.0 0.0 0
M  V30 2 C -0.0489 1.5665 0.0 0
M  V30 3 O 1.2116 2.3742 0.0 0
M  V30 4 C -1.4074 2.3742 0.0 0
M  V30 5 C 2.4721 1.6399 0.0 0
M  V30 6 C -2.7658 1.6399 0.0 0
M  V30 7 C 3.7327 2.4354 0.0 0
M  V30 8 C 4.9933 1.7011 0.0 0
M  V30 9 C 6.2538 2.5088 0.0 0
M  V30 10 C 7.5144 1.7745 0.0 0
M  V30 11 C 8.7749 2.57 0.0 0
M  V30 12 C 10.0355 1.8357 0.0 0
M  V30 13 C 11.2961 2.6435 0.0 0
M  V30 END ATOM
M  V30 BEGIN BOND
M  V30 1 2 1 2
M  V30 2 1 2 3
M  V30 3 1 2 4
M  V30 4 1 3 5
M  V30 5 1 4 6
M  V30 6 1 5 7
M  V30 7 1 7 8
M  V30 8 1 8 9
M  V30 9 1 9 10
M  V30 10 1 10 11
M  V30 11 1 11 12
M  V30 12 1 12 13
M  V30 END BOND
M  V30 END CTAB
M  END
>  <Molecule Name>
octyl propionate

>  <Molecule Name 2>
octyl propionate

>  <Database>
Essential Oil Database

>  <InChI>
InChI=1S/C11H22O2/c1-3-5-6-7-8-9-10-13-11(12)4-2/h3-10H2,1-2H3

>  <InChI-Key>
CEQGYPPMTKWBIU-UHFFFAOYSA-N

>  <Smiles>
CCCCCCCCOC(CC)=O

>  <Molecular Formula>
C11H22O2

$$$$
p-anisyl-2-methylbutyrate
Actelion Java MolfileCreator 2.0

  0  0  0  0  0  0              0 V3000
M  V30 BEGIN CTAB
M  V30 COUNTS 16 16 0 0 0
M  V30 BEGIN ATOM
M  V30 1 O 0.0 0.0 0.0 0
M  V30 2 C -0.0469 -1.4794 0.0 0
M  V30 3 O 1.2328 -2.1721 0.0 0
M  V30 4 C -1.4206 -2.1721 0.0 0 CFG=2
M  V30 5 C 2.5126 -1.3502 0.0 0
M  V30 6 C -2.7944 -1.3502 0.0 0
M  V30 7 C -1.4676 -3.6515 0.0 0
M  V30 8 C 3.7924 -2.0429 0.0 0
M  V30 9 C -4.1681 -2.0429 0.0 0
M  V30 10 C 5.0722 -1.221 0.0 0
M  V30 11 C 3.7454 -3.5223 0.0 0
M  V30 12 C 6.352 -1.9138 0.0 0
M  V30 13 C 5.0252 -4.2268 0.0 0
M  V30 14 C 6.305 -3.3932 0.0 0
M  V30 15 O 7.5848 -4.1329 0.0 0
M  V30 16 C 8.8646 -3.2993 0.0 0
M  V30 END ATOM
M  V30 BEGIN BOND
M  V30 1 2 1 2
M  V30 2 1 2 3
M  V30 3 1 2 4
M  V30 4 1 3 5
M  V30 5 1 4 6
M  V30 6 1 4 7 CFG=1
M  V30 7 1 5 8
M  V30 8 1 6 9
M  V30 9 2 8 10
M  V30 10 1 8 11
M  V30 11 1 10 12
M  V30 12 2 11 13
M  V30 13 2 12 14
M  V30 14 1 14 15
M  V30 15 1 15 16
M  V30 16 1 13 14
M  V30 END BOND
M  V30 BEGIN COLLECTION
M  V30 MDLV30/STERAC1 ATOMS=(1 4)
M  V30 END COLLECTION
M  V30 END CTAB
M  END
>  <Molecule Name>
p-anisyl-2-methylbutyrate

>  <Molecule Name 2>
p-anisyl-2-methylbutyrate

>  <Database>
Essential Oil Database

>  <InChI>
InChI=1S/C13H18O3/c1-4-10(2)13(14)16-9-11-5-7-12(15-3)8-6-11/h5-8,10H,4,9H2,1-3H3/t10-/m0/s1

>  <InChI-Key>
XFWPUPJJYAFACN-JTQLQIEISA-N

>  <Smiles>
CCC(C)C(OCc(cc1)ccc1OC)=O

>  <Molecular Formula>
C13H18O3

$$$$
p-anisyl hexanoate
Actelion Java MolfileCreator 2.0

  0  0  0  0  0  0              0 V3000
M  V30 BEGIN CTAB
M  V30 COUNTS 17 17 0 0 0
M  V30 BEGIN ATOM
M  V30 1 O 0.0 0.0 0.0 0
M  V30 2 C -0.0465 -1.467 0.0 0
M  V30 3 O 1.2225 -2.1656 0.0 0
M  V30 4 C -1.4088 -2.1656 0.0 0
M  V30 5 C 2.4916 -1.3389 0.0 0
M  V30 6 C -2.771 -1.3389 0.0 0
M  V30 7 C 3.7607 -2.0375 0.0 0
M  V30 8 C -4.1333 -2.0375 0.0 0
M  V30 9 C 5.0298 -1.2108 0.0 0
M  V30 10 C 3.7141 -3.5046 0.0 0
M  V30 11 C -5.4955 -1.2108 0.0 0
M  V30 12 C 6.2989 -1.9327 0.0 0
M  V30 13 C 4.9832 -4.2148 0.0 0
M  V30 14 C -6.8578 -1.9327 0.0 0
M  V30 15 C 6.2523 -3.3998 0.0 0
M  V30 16 O 7.5215 -4.0984 0.0 0
M  V30 17 C 8.7906 -3.2833 0.0 0
M  V30 END ATOM
M  V30 BEGIN BOND
M  V30 1 2 1 2
M  V30 2 1 2 3
M  V30 3 1 2 4
M  V30 4 1 3 5
M  V30 5 1 4 6
M  V30 6 1 5 7
M  V30 7 1 6 8
M  V30 8 2 7 9
M  V30 9 1 7 10
M  V30 10 1 8 11
M  V30 11 1 9 12
M  V30 12 2 10 13
M  V30 13 1 11 14
M  V30 14 2 12 15
M  V30 15 1 15 16
M  V30 16 1 16 17
M  V30 17 1 13 15
M  V30 END BOND
M  V30 END CTAB
M  END
>  <Molecule Name>
p-anisyl hexanoate

>  <Molecule Name 2>
p-anisyl hexanoate

>  <Database>
Essential Oil Database

>  <InChI>
InChI=1S/C14H20O3/c1-3-4-5-6-14(15)17-11-12-7-9-13(16-2)10-8-12/h7-10H,3-6,11H2,1-2H3

>  <InChI-Key>
IDNYDOYPAOXMOC-UHFFFAOYSA-N

>  <Smiles>
CCCCCC(OCc(cc1)ccc1OC)=O

>  <Molecular Formula>
C14H20O3

$$$$
phenyl ethyl-2-methylbutyrate
Actelion Java MolfileCreator 2.0

  0  0  0  0  0  0              0 V3000
M  V30 BEGIN CTAB
M  V30 COUNTS 15 15 0 0 0
M  V30 BEGIN ATOM
M  V30 1 O 0.0 0.0 0.0 0
M  V30 2 C -0.0485 1.5529 0.0 0
M  V30 3 O 1.201 2.3415 0.0 0
M  V30 4 C -1.3952 2.3415 0.0 0 CFG=2
M  V30 5 C 2.4507 1.6257 0.0 0
M  V30 6 C -2.7419 1.6257 0.0 0
M  V30 7 C -1.4437 3.8944 0.0 0
M  V30 8 C 3.7003 2.4143 0.0 0
M  V30 9 C 2.4021 0.1698 0.0 0
M  V30 10 C -4.0885 2.4143 0.0 0
M  V30 11 C 4.9499 1.6985 0.0 0
M  V30 12 C 3.6518 -0.5459 0.0 0
M  V30 13 C -5.4352 1.6985 0.0 0
M  V30 14 C 4.9014 0.2426 0.0 0
M  V30 15 C -6.7819 2.4749 0.0 0
M  V30 END ATOM
M  V30 BEGIN BOND
M  V30 1 2 1 2
M  V30 2 1 2 3
M  V30 3 1 2 4
M  V30 4 1 3 5
M  V30 5 1 4 6
M  V30 6 1 4 7 CFG=3
M  V30 7 2 5 8
M  V30 8 1 5 9
M  V30 9 1 6 10
M  V30 10 1 8 11
M  V30 11 2 9 12
M  V30 12 1 10 13
M  V30 13 2 11 14
M  V30 14 1 13 15
M  V30 15 1 12 14
M  V30 END BOND
M  V30 BEGIN COLLECTION
M  V30 MDLV30/STERAC1 ATOMS=(1 4)
M  V30 END COLLECTION
M  V30 END CTAB
M  END
>  <Molecule Name>
phenyl ethyl-2-methylbutyrate

>  <Molecule Name 2>
phenyl ethyl-2-methylbutyrate

>  <Database>
Essential Oil Database

>  <InChI>
InChI=1S/C13H18O2/c1-3-4-8-11(2)13(14)15-12-9-6-5-7-10-12/h5-7,9-11H,3-4,8H2,1-2H3/t11-/m0/s1

>  <InChI-Key>
KCCKUSISRJUKBM-NSHDSACASA-N

>  <Smiles>
CCCCC(C)C(Oc1ccccc1)=O

>  <Molecular Formula>
C13H18O2

$$$$
propyl-3-methyl butyrate
Actelion Java MolfileCreator 2.0

  0  0  0  0  0  0              0 V3000
M  V30 BEGIN CTAB
M  V30 COUNTS 10 9 0 0 0
M  V30 BEGIN ATOM
M  V30 1 O 0.0 0.0 0.0 0
M  V30 2 C -0.0486 -1.458 0.0 0
M  V30 3 O 1.2028 -2.187 0.0 0
M  V30 4 C -1.3972 -2.187 0.0 0
M  V30 5 C 2.4543 -1.3972 0.0 0
M  V30 6 C -2.7459 -1.3972 0.0 0
M  V30 7 C 3.7057 -2.1262 0.0 0
M  V30 8 C -4.0945 -2.1262 0.0 0
M  V30 9 C -2.7945 0.1579 0.0 0
M  V30 10 C 4.9572 -1.3365 0.0 0
M  V30 END ATOM
M  V30 BEGIN BOND
M  V30 1 2 1 2
M  V30 2 1 2 3
M  V30 3 1 2 4
M  V30 4 1 3 5
M  V30 5 1 4 6
M  V30 6 1 5 7
M  V30 7 1 6 8
M  V30 8 1 6 9
M  V30 9 1 7 10
M  V30 END BOND
M  V30 END CTAB
M  END
>  <Molecule Name>
propyl-3-methyl butyrate

>  <Molecule Name 2>
propyl-3-methyl butyrate

>  <Database>
Essential Oil Database

>  <InChI>
InChI=1S/C8H16O2/c1-4-5-10-8(9)6-7(2)3/h7H,4-6H2,1-3H3

>  <InChI-Key>
LSJMDWFAADPNAX-UHFFFAOYSA-N

>  <Smiles>
CCCOC(CC(C)C)=O

>  <Molecular Formula>
C8H16O2

$$$$
propyl isobutyrate
Actelion Java MolfileCreator 2.0

  0  0  0  0  0  0              0 V3000
M  V30 BEGIN CTAB
M  V30 COUNTS 9 8 0 0 0
M  V30 BEGIN ATOM
M  V30 1 O 0.0 0.0 0.0 0
M  V30 2 C -0.0465 -1.4673 0.0 0
M  V30 3 O 1.2227 -2.1777 0.0 0
M  V30 4 C -1.4091 -2.1777 0.0 0
M  V30 5 C 2.4921 -1.3508 0.0 0
M  V30 6 C -2.7716 -1.3508 0.0 0
M  V30 7 C -1.4557 -3.645 0.0 0
M  V30 8 C 3.7615 -2.0496 0.0 0
M  V30 9 C 5.0309 -1.2227 0.0 0
M  V30 END ATOM
M  V30 BEGIN BOND
M  V30 1 2 1 2
M  V30 2 1 2 3
M  V30 3 1 2 4
M  V30 4 1 3 5
M  V30 5 1 4 6
M  V30 6 1 4 7
M  V30 7 1 5 8
M  V30 8 1 8 9
M  V30 END BOND
M  V30 END CTAB
M  END
>  <Molecule Name>
propyl isobutyrate

>  <Molecule Name 2>
propyl isobutyrate

>  <Database>
Essential Oil Database

>  <InChI>
InChI=1S/C7H14O2/c1-4-5-9-7(8)6(2)3/h6H,4-5H2,1-3H3

>  <InChI-Key>
AZFUASHXSOTBNU-UHFFFAOYSA-N

>  <Smiles>
CCCOC(C(C)C)=O

>  <Molecular Formula>
C7H14O2

$$$$
(z)-4-octenyl 2-methyl butyrate
Actelion Java MolfileCreator 2.0

  0  0  0  0  0  0              0 V3000
M  V30 BEGIN CTAB
M  V30 COUNTS 15 14 0 0 0
M  V30 BEGIN ATOM
M  V30 1 O 0.0 0.0 0.0 0
M  V30 2 C -0.0487 -1.4633 0.0 0
M  V30 3 O 1.2072 -2.195 0.0 0
M  V30 4 C -1.4024 -2.195 0.0 0 CFG=2
M  V30 5 C 2.4633 -1.4024 0.0 0
M  V30 6 C -2.756 -1.4024 0.0 0
M  V30 7 C -1.4511 -3.6584 0.0 0
M  V30 8 C 3.7194 -2.1341 0.0 0
M  V30 9 C -4.1096 -2.1341 0.0 0
M  V30 10 C 4.9755 -1.3414 0.0 0
M  V30 11 C 6.2315 -2.0731 0.0 0
M  V30 12 C 7.4876 -1.2804 0.0 0
M  V30 13 C 7.4388 0.2804 0.0 0
M  V30 14 C 8.6949 1.0731 0.0 0
M  V30 15 C 8.6461 2.634 0.0 0
M  V30 END ATOM
M  V30 BEGIN BOND
M  V30 1 2 1 2
M  V30 2 1 2 3
M  V30 3 1 2 4
M  V30 4 1 3 5
M  V30 5 1 4 6
M  V30 6 1 4 7 CFG=1
M  V30 7 1 5 8
M  V30 8 1 6 9
M  V30 9 1 8 10
M  V30 10 1 10 11
M  V30 11 2 11 12
M  V30 12 1 12 13
M  V30 13 1 13 14
M  V30 14 1 14 15
M  V30 END BOND
M  V30 BEGIN COLLECTION
M  V30 MDLV30/STERAC1 ATOMS=(1 4)
M  V30 END COLLECTION
M  V30 END CTAB
M  END
>  <Molecule Name>
(z)-4-octenyl 2-methyl butyrate

>  <Molecule Name 2>
(z)-4-octenyl 2-methyl butyrate

>  <Database>
Essential Oil Database

>  <InChI>
InChI=1S/C13H24O2/c1-4-6-7-8-9-10-11-15-13(14)12(3)5-2/h7-8,12H,4-6,9-11H2,1-3H3/b8-7-/t12-/m0/s1

>  <InChI-Key>
DLGLPIBUMMJWFC-KRZKBDHCSA-N

>  <Smiles>
CCC/C=C\CCCOC(C(C)CC)=O

>  <Molecular Formula>
C13H24O2

$$$$
(z)-4-octenyl acetate
Actelion Java MolfileCreator 2.0

  0  0  0  0  0  0              0 V3000
M  V30 BEGIN CTAB
M  V30 COUNTS 12 11 0 0 0
M  V30 BEGIN ATOM
M  V30 1 O 0.0 0.0 0.0 0
M  V30 2 C 1.2586 0.7942 0.0 0
M  V30 3 O 2.5172 0.061 0.0 0
M  V30 4 C 1.2097 2.3584 0.0 0
M  V30 5 C 3.7759 0.8553 0.0 0
M  V30 6 C 5.0345 0.1221 0.0 0
M  V30 7 C 6.2932 0.9164 0.0 0
M  V30 8 C 7.5518 0.1955 0.0 0
M  V30 9 C 8.8104 0.9898 0.0 0
M  V30 10 C 8.7616 2.5539 0.0 0
M  V30 11 C 10.0202 3.3482 0.0 0
M  V30 12 C 9.9713 4.9123 0.0 0
M  V30 END ATOM
M  V30 BEGIN BOND
M  V30 1 2 1 2
M  V30 2 1 2 3
M  V30 3 1 2 4
M  V30 4 1 3 5
M  V30 5 1 5 6
M  V30 6 1 6 7
M  V30 7 1 7 8
M  V30 8 2 8 9
M  V30 9 1 9 10
M  V30 10 1 10 11
M  V30 11 1 11 12
M  V30 END BOND
M  V30 END CTAB
M  END
>  <Molecule Name>
(z)-4-octenyl acetate

>  <Molecule Name 2>
(z)-4-octenyl acetate

>  <Database>
Essential Oil Database

>  <InChI>
InChI=1S/C10H18O2/c1-3-4-5-6-7-8-9-12-10(2)11/h5-6H,3-4,7-9H2,1-2H3/b6-5-

>  <InChI-Key>
ZYTLHCDDGYHKDO-WAYWQWQTSA-N

>  <Smiles>
CCC/C=C\CCCOC(C)=O

>  <Molecular Formula>
C10H18O2

$$$$
(z)-4-octenyl hexanoate
Actelion Java MolfileCreator 2.0

  0  0  0  0  0  0              0 V3000
M  V30 BEGIN CTAB
M  V30 COUNTS 16 15 0 0 0
M  V30 BEGIN ATOM
M  V30 1 O 0.0 0.0 0.0 0
M  V30 2 C -0.0484 -1.4541 0.0 0
M  V30 3 O 1.1996 -2.1812 0.0 0
M  V30 4 C -1.3935 -2.1812 0.0 0
M  V30 5 C 2.4477 -1.3935 0.0 0
M  V30 6 C -2.7386 -1.3935 0.0 0
M  V30 7 C 3.6959 -2.1206 0.0 0
M  V30 8 C -4.0836 -2.1206 0.0 0
M  V30 9 C 4.944 -1.3329 0.0 0
M  V30 10 C -5.4287 -1.3329 0.0 0
M  V30 11 C 6.1921 -2.06 0.0 0
M  V30 12 C -6.7738 -2.06 0.0 0
M  V30 13 C 7.4403 -1.2723 0.0 0
M  V30 14 C 7.3918 0.2787 0.0 0
M  V30 15 C 8.6399 1.0663 0.0 0
M  V30 16 C 8.5915 2.6174 0.0 0
M  V30 END ATOM
M  V30 BEGIN BOND
M  V30 1 2 1 2
M  V30 2 1 2 3
M  V30 3 1 2 4
M  V30 4 1 3 5
M  V30 5 1 4 6
M  V30 6 1 5 7
M  V30 7 1 6 8
M  V30 8 1 7 9
M  V30 9 1 8 10
M  V30 10 1 9 11
M  V30 11 1 10 12
M  V30 12 2 11 13
M  V30 13 1 13 14
M  V30 14 1 14 15
M  V30 15 1 15 16
M  V30 END BOND
M  V30 END CTAB
M  END
>  <Molecule Name>
(z)-4-octenyl hexanoate

>  <Molecule Name 2>
(z)-4-octenyl hexanoate

>  <Database>
Essential Oil Database

>  <InChI>
InChI=1S/C14H26O2/c1-3-5-7-8-9-11-13-16-14(15)12-10-6-4-2/h7-8H,3-6,9-13H2,1-2H3/b8-7-

>  <InChI-Key>
KLOQZYOSPDSOLH-FPLPWBNLSA-N

>  <Smiles>
CCCCCC(OCCC/C=C\CCC)=O

>  <Molecular Formula>
C14H26O2

$$$$
(z)-4-octenyl isobutyrate
Actelion Java MolfileCreator 2.0

  0  0  0  0  0  0              0 V3000
M  V30 BEGIN CTAB
M  V30 COUNTS 14 13 0 0 0
M  V30 BEGIN ATOM
M  V30 1 O 0.0 0.0 0.0 0
M  V30 2 C -0.0488 -1.4658 0.0 0
M  V30 3 O 1.2092 -2.1987 0.0 0
M  V30 4 C -1.4047 -2.1987 0.0 0
M  V30 5 C 2.4674 -1.4047 0.0 0
M  V30 6 C -2.7606 -1.4047 0.0 0
M  V30 7 C -1.4535 -3.6645 0.0 0
M  V30 8 C 3.7255 -2.1376 0.0 0
M  V30 9 C 4.9837 -1.3436 0.0 0
M  V30 10 C 6.2419 -2.0765 0.0 0
M  V30 11 C 7.5 -1.2825 0.0 0
M  V30 12 C 7.4511 0.2809 0.0 0
M  V30 13 C 8.7093 1.0871 0.0 0
M  V30 14 C 8.6604 2.6506 0.0 0
M  V30 END ATOM
M  V30 BEGIN BOND
M  V30 1 2 1 2
M  V30 2 1 2 3
M  V30 3 1 2 4
M  V30 4 1 3 5
M  V30 5 1 4 6
M  V30 6 1 4 7
M  V30 7 1 5 8
M  V30 8 1 8 9
M  V30 9 1 9 10
M  V30 10 2 10 11
M  V30 11 1 11 12
M  V30 12 1 12 13
M  V30 13 1 13 14
M  V30 END BOND
M  V30 END CTAB
M  END
>  <Molecule Name>
(z)-4-octenyl isobutyrate

>  <Molecule Name 2>
(z)-4-octenyl isobutyrate

>  <Database>
Essential Oil Database

>  <InChI>
InChI=1S/C12H22O2/c1-4-5-6-7-8-9-10-14-12(13)11(2)3/h6-7,11H,4-5,8-10H2,1-3H3/b7-6-

>  <InChI-Key>
YMCNJAQDEHHCAZ-SREVYHEPSA-N

>  <Smiles>
CCC/C=C\CCCOC(C(C)C)=O

>  <Molecular Formula>
C12H22O2

$$$$
(z)-4-octenyl pentanoate
Actelion Java MolfileCreator 2.0

  0  0  0  0  0  0              0 V3000
M  V30 BEGIN CTAB
M  V30 COUNTS 15 14 0 0 0
M  V30 BEGIN ATOM
M  V30 1 O 0.0 0.0 0.0 0
M  V30 2 C -0.0485 -1.4556 0.0 0
M  V30 3 O 1.2009 -2.1835 0.0 0
M  V30 4 C -1.395 -2.1835 0.0 0
M  V30 5 C 2.4504 -1.395 0.0 0
M  V30 6 C -2.7415 -1.395 0.0 0
M  V30 7 C 3.6998 -2.1228 0.0 0
M  V30 8 C -4.088 -2.1228 0.0 0
M  V30 9 C 4.9493 -1.3343 0.0 0
M  V30 10 C -5.4345 -1.3343 0.0 0
M  V30 11 C 6.1988 -2.0622 0.0 0
M  V30 12 C 7.4483 -1.2737 0.0 0
M  V30 13 C 7.3997 0.279 0.0 0
M  V30 14 C 8.6492 1.0796 0.0 0
M  V30 15 C 8.6007 2.6323 0.0 0
M  V30 END ATOM
M  V30 BEGIN BOND
M  V30 1 2 1 2
M  V30 2 1 2 3
M  V30 3 1 2 4
M  V30 4 1 3 5
M  V30 5 1 4 6
M  V30 6 1 5 7
M  V30 7 1 6 8
M  V30 8 1 7 9
M  V30 9 1 8 10
M  V30 10 1 9 11
M  V30 11 2 11 12
M  V30 12 1 12 13
M  V30 13 1 13 14
M  V30 14 1 14 15
M  V30 END BOND
M  V30 END CTAB
M  END
>  <Molecule Name>
(z)-4-octenyl pentanoate

>  <Molecule Name 2>
(z)-4-octenyl pentanoate

>  <Database>
Essential Oil Database

>  <InChI>
InChI=1S/C13H24O2/c1-3-5-7-8-9-10-12-15-13(14)11-6-4-2/h7-8H,3-6,9-12H2,1-2H3/b8-7-

>  <InChI-Key>
YCSGRVHSDOYVTJ-FPLPWBNLSA-N

>  <Smiles>
CCCCC(OCCC/C=C\CCC)=O

>  <Molecular Formula>
C13H24O2

$$$$
alpha-terpinyl acetate
Actelion Java MolfileCreator 2.0

  0  0  0  0  0  0              0 V3000
M  V30 BEGIN CTAB
M  V30 COUNTS 14 14 0 0 0
M  V30 BEGIN ATOM
M  V30 1 O 0.0 0.0 0.0 0
M  V30 2 C 1.2683 0.7881 0.0 0
M  V30 3 O 2.5367 0.0615 0.0 0
M  V30 4 C 1.2191 2.3643 0.0 0
M  V30 5 C 2.4875 -1.4161 0.0 0
M  V30 6 C 2.4382 -2.8939 0.0 0 CFG=2
M  V30 7 C 0.9112 -1.3669 0.0 0
M  V30 8 C 3.9652 -1.3669 0.0 0
M  V30 9 C 1.0713 -3.6204 0.0 0
M  V30 10 C 3.7066 -3.6204 0.0 0
M  V30 11 C 1.0221 -5.0982 0.0 0
M  V30 12 C 3.6574 -5.0982 0.0 0
M  V30 13 C 2.2904 -5.8247 0.0 0
M  V30 14 C 2.2412 -7.3025 0.0 0
M  V30 END ATOM
M  V30 BEGIN BOND
M  V30 1 2 1 2
M  V30 2 1 2 3
M  V30 3 1 2 4
M  V30 4 1 3 5
M  V30 5 1 6 5 CFG=1
M  V30 6 1 5 7
M  V30 7 1 5 8
M  V30 8 1 6 9
M  V30 9 1 6 10
M  V30 10 1 9 11
M  V30 11 1 10 12
M  V30 12 2 11 13
M  V30 13 1 13 14
M  V30 14 1 12 13
M  V30 END BOND
M  V30 BEGIN COLLECTION
M  V30 MDLV30/STERAC1 ATOMS=(1 6)
M  V30 END COLLECTION
M  V30 END CTAB
M  END
>  <Molecule Name>
alpha-terpinyl acetate

>  <Molecule Name 2>
alpha-terpinyl acetate

>  <Database>
Essential Oil Database

>  <InChI>
InChI=1S/C12H20O2/c1-9-5-7-11(8-6-9)12(3,4)14-10(2)13/h5,11H,6-8H2,1-4H3/t11-/m1/s1

>  <InChI-Key>
IGODOXYLBBXFDW-LLVKDONJSA-N

>  <Smiles>
CC(C)(C1CC=C(C)CC1)OC(C)=O

>  <Molecular Formula>
C12H20O2

$$$$
bornyl formate
Actelion Java MolfileCreator 2.0

  0  0  0  0  0  0              0 V3000
M  V30 BEGIN CTAB
M  V30 COUNTS 13 14 0 0 0
M  V30 BEGIN ATOM
M  V30 1 O 0.0 0.0 0.0 0
M  V30 2 C -0.0472 -1.4183 0.0 0
M  V30 3 O -1.3592 -2.1156 0.0 0
M  V30 4 C -2.6711 -1.3474 0.0 0 CFG=2
M  V30 5 C -3.9831 -2.0447 0.0 0 CFG=1
M  V30 6 C -2.7184 0.1654 0.0 0
M  V30 7 C -4.4086 -0.5318 0.0 0
M  V30 8 C -5.2951 -1.2764 0.0 0
M  V30 9 C -4.0304 -3.463 0.0 0
M  V30 10 C -4.0304 0.9337 0.0 0 CFG=2
M  V30 11 C -5.8624 -0.91 0.0 0
M  V30 12 C -5.8624 -0.059 0.0 0
M  V30 13 C -5.3423 0.2363 0.0 0
M  V30 END ATOM
M  V30 BEGIN BOND
M  V30 1 2 1 2
M  V30 2 1 2 3
M  V30 3 1 4 3 CFG=3
M  V30 4 1 4 5
M  V30 5 1 4 6
M  V30 6 1 5 7
M  V30 7 1 5 8
M  V30 8 1 5 9 CFG=1
M  V30 9 1 10 6 CFG=3
M  V30 10 1 7 11
M  V30 11 1 7 12
M  V30 12 1 8 13
M  V30 13 1 7 10
M  V30 14 1 10 13
M  V30 END BOND
M  V30 BEGIN COLLECTION
M  V30 MDLV30/STEABS ATOMS=(3 4 5 10)
M  V30 END COLLECTION
M  V30 END CTAB
M  END
>  <Molecule Name>
bornyl formate

>  <Molecule Name 2>
bornyl formate

>  <Database>
Essential Oil Database

>  <InChI>
InChI=1S/C11H18O2/c1-10(2)8-4-5-11(10,3)9(6-8)13-7-12/h7-9H,4-6H2,1-3H3/t8-,9+,11+/m1/s1

>  <InChI-Key>
RDWUNORUTVEHJF-YWVKMMECSA-N

>  <Smiles>
CC(C)([C@H](CC1)C2)[C@]1(C)[C@H]2OC=O

>  <Molecular Formula>
C11H18O2

$$$$
cis-p-mentha-3-en-1,2-diol
Actelion Java MolfileCreator 2.0

  0  0  0  0  0  0              0 V3000
M  V30 BEGIN CTAB
M  V30 COUNTS 12 12 0 0 0
M  V30 BEGIN ATOM
M  V30 1 O 0.0 0.0 0.0 0
M  V30 2 C -1.0341 -1.1154 0.0 0
M  V30 3 C -2.3935 -1.801 0.0 0
M  V30 4 C 0.2323 -1.801 0.0 0
M  V30 5 C -2.0682 0.0929 0.0 0
M  V30 6 O -3.753 -0.9876 0.0 0
M  V30 7 C -2.44 -3.265 0.0 0
M  V30 8 C 0.1859 -3.265 0.0 0
M  V30 9 C -1.1735 -3.9505 0.0 0
M  V30 10 C -1.22 -5.4146 0.0 0
M  V30 11 C 0.0464 -6.1234 0.0 0
M  V30 12 C -2.5795 -6.1234 0.0 0
M  V30 END ATOM
M  V30 BEGIN BOND
M  V30 1 1 1 2
M  V30 2 1 2 3
M  V30 3 1 2 4
M  V30 4 1 2 5
M  V30 5 1 3 6
M  V30 6 1 3 7
M  V30 7 1 4 8
M  V30 8 2 7 9
M  V30 9 1 9 10
M  V30 10 1 10 11
M  V30 11 1 10 12
M  V30 12 1 8 9
M  V30 END BOND
M  V30 END CTAB
M  END
>  <Molecule Name>
cis-p-mentha-3-en-1,2-diol

>  <Molecule Name 2>
cis-p-mentha-3-en-1,2-diol

>  <Database>
Essential Oil Database

>  <InChI>
InChI=1S/C10H18O2/c1-7(2)8-4-5-10(3,12)9(11)6-8/h6-7,9,11-12H,4-5H2,1-3H3

>  <InChI-Key>
QQMJLNCENDJRCL-UHFFFAOYSA-N

>  <Smiles>
CC(C)C(CCC1(C)O)=CC1O

>  <Molecular Formula>
C10H18O2

$$$$
piperitone
Actelion Java MolfileCreator 2.0

  0  0  0  0  0  0              0 V3000
M  V30 BEGIN CTAB
M  V30 COUNTS 11 11 0 0 0
M  V30 BEGIN ATOM
M  V30 1 O 0.0 0.0 0.0 0
M  V30 2 C 1.2712 -0.7282 0.0 0
M  V30 3 C 1.2219 -2.2092 0.0 0
M  V30 4 C 2.5425 0.0617 0.0 0 CFG=2
M  V30 5 C 2.4931 -2.9374 0.0 0
M  V30 6 C 2.4931 1.6415 0.0 0
M  V30 7 C 3.8138 -0.6664 0.0 0
M  V30 8 C 3.7644 -2.1352 0.0 0
M  V30 9 C 2.4438 -4.4185 0.0 0
M  V30 10 C 1.1231 2.4438 0.0 0
M  V30 11 C 3.7644 2.4438 0.0 0
M  V30 END ATOM
M  V30 BEGIN BOND
M  V30 1 2 1 2
M  V30 2 1 2 3
M  V30 3 1 2 4
M  V30 4 2 3 5
M  V30 5 1 4 6 CFG=3
M  V30 6 1 4 7
M  V30 7 1 5 8
M  V30 8 1 5 9
M  V30 9 1 6 10
M  V30 10 1 6 11
M  V30 11 1 7 8
M  V30 END BOND
M  V30 BEGIN COLLECTION
M  V30 MDLV30/STERAC1 ATOMS=(1 4)
M  V30 END COLLECTION
M  V30 END CTAB
M  END
>  <Molecule Name>
piperitone

>  <Molecule Name 2>
piperitone

>  <Database>
Essential Oil Database

>  <InChI>
InChI=1S/C10H16O/c1-7(2)9-5-4-8(3)6-10(9)11/h6-7,9H,4-5H2,1-3H3/t9-/m0/s1

>  <InChI-Key>
YSTPAHQEHQSRJD-VIFPVBQESA-N

>  <Smiles>
CC(C)C(CCC(C)=C1)C1=O

>  <Molecular Formula>
C10H16O

$$$$
p-mentha-1,4-dien-7-ol
Actelion Java MolfileCreator 2.0

  0  0  0  0  0  0              0 V3000
M  V30 BEGIN CTAB
M  V30 COUNTS 11 11 0 0 0
M  V30 BEGIN ATOM
M  V30 1 O 0.0 0.0 0.0 0
M  V30 2 C 1.2901 -0.6983 0.0 0
M  V30 3 C 1.2427 -2.1896 0.0 0
M  V30 4 C -0.142 -2.8879 0.0 0
M  V30 5 C 2.5328 -2.8879 0.0 0
M  V30 6 C -0.1893 -4.3792 0.0 0
M  V30 7 C 2.4855 -4.3792 0.0 0
M  V30 8 C 1.1007 -5.0776 0.0 0
M  V30 9 C 1.0533 -6.5689 0.0 0
M  V30 10 C -0.3314 -7.279 0.0 0
M  V30 11 C 2.3435 -7.279 0.0 0
M  V30 END ATOM
M  V30 BEGIN BOND
M  V30 1 1 1 2
M  V30 2 1 2 3
M  V30 3 2 3 4
M  V30 4 1 3 5
M  V30 5 1 4 6
M  V30 6 1 5 7
M  V30 7 1 6 8
M  V30 8 1 8 9
M  V30 9 1 9 10
M  V30 10 1 9 11
M  V30 11 2 7 8
M  V30 END BOND
M  V30 END CTAB
M  END
>  <Molecule Name>
p-mentha-1,4-dien-7-ol

>  <Molecule Name 2>
p-mentha-1,4-dien-7-ol

>  <Database>
Essential Oil Database

>  <InChI>
InChI=1S/C10H16O/c1-8(2)10-5-3-9(7-11)4-6-10/h3,6,8,11H,4-5,7H2,1-2H3

>  <InChI-Key>
IRZQJXCCKXGQFV-UHFFFAOYSA-N

>  <Smiles>
CC(C)C1=CCC(CO)=CC1

>  <Molecular Formula>
C10H16O

$$$$
p-methoxypropiophenone
Actelion Java MolfileCreator 2.0

  0  0  0  0  0  0              0 V3000
M  V30 BEGIN CTAB
M  V30 COUNTS 12 12 0 0 0
M  V30 BEGIN ATOM
M  V30 1 O 0.0 0.0 0.0 0
M  V30 2 C -1.359 -0.7223 0.0 0
M  V30 3 C -1.4079 -2.1915 0.0 0
M  V30 4 C -2.718 0.0612 0.0 0
M  V30 5 C -0.1469 -2.9139 0.0 0
M  V30 6 C -2.767 -2.9139 0.0 0
M  V30 7 C -2.767 1.6283 0.0 0
M  V30 8 C -0.1958 -4.3831 0.0 0
M  V30 9 C -2.8159 -4.3831 0.0 0
M  V30 10 C -1.5549 -5.1054 0.0 0
M  V30 11 O -1.6038 -6.5747 0.0 0
M  V30 12 C -0.3428 -7.3093 0.0 0
M  V30 END ATOM
M  V30 BEGIN BOND
M  V30 1 2 1 2
M  V30 2 1 2 3
M  V30 3 1 2 4
M  V30 4 2 3 5
M  V30 5 1 3 6
M  V30 6 1 4 7
M  V30 7 1 5 8
M  V30 8 2 6 9
M  V30 9 2 8 10
M  V30 10 1 10 11
M  V30 11 1 11 12
M  V30 12 1 9 10
M  V30 END BOND
M  V30 END CTAB
M  END
>  <Molecule Name>
p-methoxypropiophenone

>  <Molecule Name 2>
p-methoxypropiophenone

>  <Database>
Essential Oil Database

>  <InChI>
InChI=1S/C10H12O2/c1-3-10(11)8-4-6-9(12-2)7-5-8/h4-7H,3H2,1-2H3

>  <InChI-Key>
ZJVAWPKTWVFKHG-UHFFFAOYSA-N

>  <Smiles>
CCC(c(cc1)ccc1OC)=O

>  <Molecular Formula>
C10H12O2

$$$$
butanal
Actelion Java MolfileCreator 2.0

  0  0  0  0  0  0              0 V3000
M  V30 BEGIN CTAB
M  V30 COUNTS 5 4 0 0 0
M  V30 BEGIN ATOM
M  V30 1 O 0.0 0.0 0.0 0
M  V30 2 C 1.5119 0.0479 0.0 0
M  V30 3 C 2.2199 -1.2599 0.0 0
M  V30 4 C 3.7318 -1.2119 0.0 0
M  V30 5 C 4.4398 -2.5199 0.0 0
M  V30 END ATOM
M  V30 BEGIN BOND
M  V30 1 2 1 2
M  V30 2 1 2 3
M  V30 3 1 3 4
M  V30 4 1 4 5
M  V30 END BOND
M  V30 END CTAB
M  END
>  <Molecule Name>
butanal

>  <Molecule Name 2>
butanal

>  <Database>
Essential Oil Database

>  <InChI>
InChI=1S/C4H8O/c1-2-3-4-5/h4H,2-3H2,1H3

>  <InChI-Key>
ZTQSAGDEMFDKMZ-UHFFFAOYSA-N

>  <Smiles>
CCCC=O

>  <Molecular Formula>
C4H8O

$$$$
(z)-3-butylidenephthalide
Actelion Java MolfileCreator 2.0

  0  0  0  0  0  0              0 V3000
M  V30 BEGIN CTAB
M  V30 COUNTS 14 15 0 0 0
M  V30 BEGIN ATOM
M  V30 1 O 0.0 0.0 0.0 0
M  V30 2 C 0.419 1.4605 0.0 0
M  V30 3 O -0.4908 2.7056 0.0 0
M  V30 4 C 1.7837 1.9753 0.0 0
M  V30 5 C 0.3232 3.9506 0.0 0
M  V30 6 C 1.7359 3.5077 0.0 0
M  V30 7 C 3.0168 1.257 0.0 0
M  V30 8 C -0.1915 5.4112 0.0 0
M  V30 9 C 2.9689 4.2858 0.0 0
M  V30 10 C 4.2499 2.0351 0.0 0
M  V30 11 C -1.688 5.7703 0.0 0
M  V30 12 C 4.202 3.5675 0.0 0
M  V30 13 C -2.2028 7.2309 0.0 0
M  V30 14 C -3.6992 7.59 0.0 0
M  V30 END ATOM
M  V30 BEGIN BOND
M  V30 1 2 1 2
M  V30 2 1 2 3
M  V30 3 1 2 4
M  V30 4 1 3 5
M  V30 5 2 4 6
M  V30 6 1 4 7
M  V30 7 2 5 8
M  V30 8 1 6 9
M  V30 9 2 7 10
M  V30 10 1 8 11
M  V30 11 2 9 12
M  V30 12 1 11 13
M  V30 13 1 13 14
M  V30 14 1 5 6
M  V30 15 1 10 12
M  V30 END BOND
M  V30 END CTAB
M  END
>  <Molecule Name>
(z)-3-butylidenephthalide

>  <Molecule Name 2>
(z)-3-butylidenephthalide

>  <Database>
Essential Oil Database

>  <InChI>
InChI=1S/C12H12O2/c1-2-3-8-11-9-6-4-5-7-10(9)12(13)14-11/h4-8H,2-3H2,1H3/b11-8-

>  <InChI-Key>
WMBOCUXXNSOQHM-FLIBITNWSA-N

>  <Smiles>
CCC/C=C(/c1c2cccc1)\OC2=O

>  <Molecular Formula>
C12H12O2

$$$$
pulegone
Actelion Java MolfileCreator 2.0

  0  0  0  0  0  0              0 V3000
M  V30 BEGIN CTAB
M  V30 COUNTS 11 11 0 0 0
M  V30 BEGIN ATOM
M  V30 1 O 0.0 0.0 0.0 0
M  V30 2 C 1.2556 0.7924 0.0 0
M  V30 3 C 2.5113 0.0731 0.0 0
M  V30 4 C 1.2069 2.3528 0.0 0
M  V30 5 C 2.4625 -1.3897 0.0 0
M  V30 6 C 3.767 0.8655 0.0 0
M  V30 7 C 2.4625 3.1574 0.0 0 CFG=1
M  V30 8 C 3.7182 -2.1212 0.0 0
M  V30 9 C 1.1093 -2.1212 0.0 0
M  V30 10 C 3.7182 2.426 0.0 0
M  V30 11 C 2.4138 4.7179 0.0 0
M  V30 END ATOM
M  V30 BEGIN BOND
M  V30 1 2 1 2
M  V30 2 1 2 3
M  V30 3 1 2 4
M  V30 4 2 3 5
M  V30 5 1 3 6
M  V30 6 1 4 7
M  V30 7 1 5 8
M  V30 8 1 5 9
M  V30 9 1 6 10
M  V30 10 1 7 11 CFG=3
M  V30 11 1 7 10
M  V30 END BOND
M  V30 BEGIN COLLECTION
M  V30 MDLV30/STEABS ATOMS=(1 7)
M  V30 END COLLECTION
M  V30 END CTAB
M  END
>  <Molecule Name>
pulegone

>  <Molecule Name 2>
pulegone

>  <Database>
Essential Oil Database

>  <InChI>
InChI=1S/C10H16O/c1-7(2)9-5-4-8(3)6-10(9)11/h8H,4-6H2,1-3H3/t8-/m1/s1

>  <InChI-Key>
NZGWDASTMWDZIW-MRVPVSSYSA-N

>  <Smiles>
C[C@H](CCC1=C(C)C)CC1=O

>  <Molecular Formula>
C10H16O

$$$$
alpha-thujone
Actelion Java MolfileCreator 2.0

  0  0  0  0  0  0              0 V3000
M  V30 BEGIN CTAB
M  V30 COUNTS 11 12 0 0 0
M  V30 BEGIN ATOM
M  V30 1 O 0.0 0.0 0.0 0
M  V30 2 C -1.5305 0.0478 0.0 0
M  V30 3 C -2.4392 1.2913 0.0 0 CFG=1
M  V30 4 C -2.4392 -1.1 0.0 0
M  V30 5 C -3.898 0.8728 0.0 0 CFG=2
M  V30 6 C -2.0207 2.7501 0.0 0
M  V30 7 C -3.898 -0.5859 0.0 0 CFG=1
M  V30 8 C -5.2253 0.1674 0.0 0
M  V30 9 C -4.5676 -1.8892 0.0 0
M  V30 10 C -6.0862 -1.9968 0.0 0
M  V30 11 C -3.7545 -3.0371 0.0 0
M  V30 END ATOM
M  V30 BEGIN BOND
M  V30 1 2 1 2
M  V30 2 1 2 3
M  V30 3 1 2 4
M  V30 4 1 3 5
M  V30 5 1 3 6 CFG=1
M  V30 6 1 4 7
M  V30 7 1 5 8 CFG=3
M  V30 8 1 7 9 CFG=1
M  V30 9 1 9 10
M  V30 10 1 9 11
M  V30 11 1 5 7
M  V30 12 1 7 8
M  V30 END BOND
M  V30 BEGIN COLLECTION
M  V30 MDLV30/STEABS ATOMS=(3 3 5 7)
M  V30 END COLLECTION
M  V30 END CTAB
M  END
>  <Molecule Name>
alpha-thujone

>  <Molecule Name 2>
alpha-thujone

>  <Database>
Essential Oil Database

>  <InChI>
InChI=1S/C10H16O/c1-6(2)10-4-8(10)7(3)9(11)5-10/h6-8H,4-5H2,1-3H3/t7-,8-,10+/m1/s1

>  <InChI-Key>
USMNOWBWPHYOEA-MRTMQBJTSA-N

>  <Smiles>
CC(C)[C@](C1)(C2)[C@H]1[C@@H](C)C2=O

>  <Molecular Formula>
C10H16O

$$$$
(e)-2-undecanal
Actelion Java MolfileCreator 2.0

  0  0  0  0  0  0              0 V3000
M  V30 BEGIN CTAB
M  V30 COUNTS 12 11 0 0 0
M  V30 BEGIN ATOM
M  V30 1 O 0.0 0.0 0.0 0
M  V30 2 C -0.0491 1.5732 0.0 0
M  V30 3 C 1.2167 2.3721 0.0 0
M  V30 4 C -1.4134 2.3721 0.0 0
M  V30 5 C 2.4827 1.6346 0.0 0
M  V30 6 C 3.7486 2.4335 0.0 0
M  V30 7 C 5.0146 1.6961 0.0 0
M  V30 8 C 6.2805 2.495 0.0 0
M  V30 9 C 7.5465 1.7575 0.0 0
M  V30 10 C 8.8124 2.5564 0.0 0
M  V30 11 C 10.0784 1.819 0.0 0
M  V30 12 C 11.3443 2.6179 0.0 0
M  V30 END ATOM
M  V30 BEGIN BOND
M  V30 1 2 1 2
M  V30 2 1 2 3
M  V30 3 1 2 4
M  V30 4 1 3 5
M  V30 5 1 5 6
M  V30 6 1 6 7
M  V30 7 1 7 8
M  V30 8 1 8 9
M  V30 9 1 9 10
M  V30 10 1 10 11
M  V30 11 1 11 12
M  V30 END BOND
M  V30 END CTAB
M  END
>  <Molecule Name>
(e)-2-undecanal

>  <Molecule Name 2>
(e)-2-undecanal

>  <Database>
Essential Oil Database

>  <InChI>
InChI=1S/C11H22O/c1-3-4-5-6-7-8-9-10-11(2)12/h3-10H2,1-2H3

>  <InChI-Key>
KYWIYKKSMDLRDC-UHFFFAOYSA-N

>  <Smiles>
CCCCCCCCCC(C)=O

>  <Molecular Formula>
C11H22O

$$$$
nonane
Actelion Java MolfileCreator 2.0

  0  0  0  0  0  0              0 V3000
M  V30 BEGIN CTAB
M  V30 COUNTS 9 8 0 0 0
M  V30 BEGIN ATOM
M  V30 1 C 0.0 0.0 0.0 0
M  V30 2 C -1.3478 -0.6949 0.0 0
M  V30 3 C 1.2636 -0.6949 0.0 0
M  V30 4 C -2.6956 0.0842 0.0 0
M  V30 5 C 2.5272 0.0842 0.0 0
M  V30 6 C -4.0435 -0.6107 0.0 0
M  V30 7 C 3.7908 -0.6107 0.0 0
M  V30 8 C -5.3913 0.1684 0.0 0
M  V30 9 C 5.0544 0.1684 0.0 0
M  V30 END ATOM
M  V30 BEGIN BOND
M  V30 1 1 1 2
M  V30 2 1 1 3
M  V30 3 1 2 4
M  V30 4 1 3 5
M  V30 5 1 4 6
M  V30 6 1 5 7
M  V30 7 1 6 8
M  V30 8 1 7 9
M  V30 END BOND
M  V30 END CTAB
M  END
>  <Molecule Name>
nonane

>  <Molecule Name 2>
nonane

>  <Database>
Essential Oil Database

>  <InChI>
InChI=1S/C9H20/c1-3-5-7-9-8-6-4-2/h3-9H2,1-2H3

>  <InChI-Key>
BKIMMITUMNQMOS-UHFFFAOYSA-N

>  <Smiles>
CCCCCCCCC

>  <Molecular Formula>
C9H20

$$$$
dihydrocarvone
Actelion Java MolfileCreator 2.0

  0  0  0  0  0  0              0 V3000
M  V30 BEGIN CTAB
M  V30 COUNTS 11 11 0 0 0
M  V30 BEGIN ATOM
M  V30 1 O 0.0 0.0 0.0 0
M  V30 2 C 1.2756 -0.7307 0.0 0
M  V30 3 C 2.5512 0.0619 0.0 0
M  V30 4 C 1.226 -2.2168 0.0 0
M  V30 5 C 3.8269 -0.6687 0.0 0
M  V30 6 C 2.5017 1.6471 0.0 0
M  V30 7 C 2.5017 -2.9475 0.0 0
M  V30 8 C 3.7773 -2.1549 0.0 0
M  V30 9 C 2.4521 -4.4337 0.0 0
M  V30 10 C 1.0774 -5.1768 0.0 0
M  V30 11 C 3.7278 -5.1768 0.0 0
M  V30 END ATOM
M  V30 BEGIN BOND
M  V30 1 2 1 2
M  V30 2 1 2 3
M  V30 3 1 2 4
M  V30 4 1 3 5
M  V30 5 1 3 6
M  V30 6 1 4 7
M  V30 7 1 5 8
M  V30 8 1 7 9
M  V30 9 2 9 10
M  V30 10 1 9 11
M  V30 11 1 7 8
M  V30 END BOND
M  V30 END CTAB
M  END
>  <Molecule Name>
dihydrocarvone

>  <Molecule Name 2>
dihydrocarvone

>  <Database>
Essential Oil Database

>  <InChI>
InChI=1S/C10H16O/c1-7(2)9-5-4-8(3)10(11)6-9/h8-9H,1,4-6H2,2-3H3

>  <InChI-Key>
AZOCECCLWFDTAP-UHFFFAOYSA-N

>  <Smiles>
CC(CCC(C1)C(C)=C)C1=O

>  <Molecular Formula>
C10H16O

$$$$
beta-farnesene
Actelion Java MolfileCreator 2.0

  0  0  0  0  0  0              0 V3000
M  V30 BEGIN CTAB
M  V30 COUNTS 15 14 0 0 0
M  V30 BEGIN ATOM
M  V30 1 C 0.0 0.0 0.0 0
M  V30 2 C 1.2253 -0.7019 0.0 0
M  V30 3 C -0.0475 1.5227 0.0 0
M  V30 4 C -1.3205 -0.7019 0.0 0
M  V30 5 C 2.4507 0.0594 0.0 0
M  V30 6 C -2.641 0.0594 0.0 0
M  V30 7 C -3.9615 -0.6424 0.0 0
M  V30 8 C -5.2821 0.1189 0.0 0
M  V30 9 C -6.6026 -0.5829 0.0 0
M  V30 10 C -5.3297 1.6417 0.0 0
M  V30 11 C -7.9231 0.1784 0.0 0
M  V30 12 C -9.2437 -0.5234 0.0 0
M  V30 13 C -10.5642 0.2379 0.0 0
M  V30 14 C -11.8847 -0.4639 0.0 0
M  V30 15 C -10.6118 1.7607 0.0 0
M  V30 END ATOM
M  V30 BEGIN BOND
M  V30 1 1 1 2
M  V30 2 2 1 3
M  V30 3 1 1 4
M  V30 4 2 2 5
M  V30 5 1 4 6
M  V30 6 1 6 7
M  V30 7 2 7 8
M  V30 8 1 8 9
M  V30 9 1 8 10
M  V30 10 1 9 11
M  V30 11 1 11 12
M  V30 12 2 12 13
M  V30 13 1 13 14
M  V30 14 1 13 15
M  V30 END BOND
M  V30 END CTAB
M  END
>  <Molecule Name>
beta-farnesene

>  <Molecule Name 2>
beta-farnesene

>  <Database>
Essential Oil Database

>  <InChI>
InChI=1S/C15H24/c1-6-14(4)10-8-12-15(5)11-7-9-13(2)3/h6,9,12H,1,4,7-8,10-11H2,2-3,5H3/b15-12+

>  <InChI-Key>
JSNRRGGBADWTMC-NTCAYCPXSA-N

>  <Smiles>
CC(C)=CCC/C(\C)=C/CCC(C=C)=C

>  <Molecular Formula>
C15H24

$$$$
citronellal
Actelion Java MolfileCreator 2.0

  0  0  0  0  0  0              0 V3000
M  V30 BEGIN CTAB
M  V30 COUNTS 11 10 0 0 0
M  V30 BEGIN ATOM
M  V30 1 O 0.0 0.0 0.0 0
M  V30 2 C -1.3187 -0.7128 0.0 0
M  V30 3 C -2.6375 0.0594 0.0 0
M  V30 4 C -3.9563 -0.6415 0.0 0 CFG=2
M  V30 5 C -5.2751 0.1306 0.0 0
M  V30 6 C -4.0039 -2.0673 0.0 0
M  V30 7 C -6.5939 -0.5821 0.0 0
M  V30 8 C -7.9127 0.19 0.0 0
M  V30 9 C -7.9603 1.7108 0.0 0
M  V30 10 C -9.2791 2.4831 0.0 0
M  V30 11 C -6.7365 2.4831 0.0 0
M  V30 END ATOM
M  V30 BEGIN BOND
M  V30 1 2 1 2
M  V30 2 1 2 3
M  V30 3 1 3 4
M  V30 4 1 4 5
M  V30 5 1 4 6 CFG=1
M  V30 6 1 5 7
M  V30 7 1 7 8
M  V30 8 2 8 9
M  V30 9 1 9 10
M  V30 10 1 9 11
M  V30 END BOND
M  V30 BEGIN COLLECTION
M  V30 MDLV30/STERAC1 ATOMS=(1 4)
M  V30 END COLLECTION
M  V30 END CTAB
M  END
>  <Molecule Name>
citronellal

>  <Molecule Name 2>
citronellal

>  <Database>
Essential Oil Database

>  <InChI>
InChI=1S/C10H18O/c1-9(2)5-4-6-10(3)7-8-11/h5,8,10H,4,6-7H2,1-3H3/t10-/m0/s1

>  <InChI-Key>
NEHNMFOYXAPHSD-JTQLQIEISA-N

>  <Smiles>
CC(CCC=C(C)C)CC=O

>  <Molecular Formula>
C10H18O

$$$$
1,4-dimethylazulene
Actelion Java MolfileCreator 2.0

  0  0  0  0  0  0              0 V3000
M  V30 BEGIN CTAB
M  V30 COUNTS 12 13 0 0 0
M  V30 BEGIN ATOM
M  V30 1 C 0.0 0.0 0.0 0
M  V30 2 C -1.2253 -0.8922 0.0 0
M  V30 3 C 1.4275 -0.2855 0.0 0
M  V30 4 C -0.3806 1.5227 0.0 0
M  V30 5 C -1.2729 -2.3554 0.0 0
M  V30 6 C -2.7123 -0.3806 0.0 0
M  V30 7 C 2.0342 -1.5941 0.0 0
M  V30 8 C -2.7599 -2.7718 0.0 0
M  V30 9 C -0.1427 -3.2477 0.0 0
M  V30 10 C -3.6521 -1.5584 0.0 0
M  V30 11 C 1.3323 -2.9027 0.0 0
M  V30 12 C -3.2714 -4.1637 0.0 0
M  V30 END ATOM
M  V30 BEGIN BOND
M  V30 1 2 1 2
M  V30 2 1 1 3
M  V30 3 1 1 4
M  V30 4 1 2 5
M  V30 5 1 2 6
M  V30 6 2 3 7
M  V30 7 2 5 8
M  V30 8 1 5 9
M  V30 9 2 6 10
M  V30 10 1 7 11
M  V30 11 1 8 12
M  V30 12 1 8 10
M  V30 13 2 9 11
M  V30 END BOND
M  V30 END CTAB
M  END
>  <Molecule Name>
1,4-dimethylazulene

>  <Molecule Name 2>
1,4-dimethylazulene

>  <Database>
Essential Oil Database

>  <InChI>
InChI=1S/C12H12/c1-9-5-3-4-6-11-10(2)7-8-12(9)11/h3-8H,1-2H3

>  <InChI-Key>
FKBGSRCZHMNHGG-UHFFFAOYSA-N

>  <Smiles>
CC(C=C1)=C2C1=C(C)C=CC=C2

>  <Molecular Formula>
C12H12

$$$$
gamma-decalactone
Actelion Java MolfileCreator 2.0

  0  0  0  0  0  0              0 V3000
M  V30 BEGIN CTAB
M  V30 COUNTS 12 12 0 0 0
M  V30 BEGIN ATOM
M  V30 1 O 0.0 0.0 0.0 0
M  V30 2 C -1.5033 0.1996 0.0 0
M  V30 3 O -2.5133 -0.8338 0.0 0
M  V30 4 C -2.2784 1.515 0.0 0
M  V30 5 C -3.8991 -0.1761 0.0 0 CFG=2
M  V30 6 C -3.7582 1.2449 0.0 0
M  V30 7 C -5.2145 -0.8808 0.0 0
M  V30 8 C -6.5299 -0.1057 0.0 0
M  V30 9 C -7.8453 -0.8103 0.0 0
M  V30 10 C -9.1607 -0.0469 0.0 0
M  V30 11 C -10.4761 -0.7516 0.0 0
M  V30 12 C -11.7915 0.0117 0.0 0
M  V30 END ATOM
M  V30 BEGIN BOND
M  V30 1 2 1 2
M  V30 2 1 2 3
M  V30 3 1 2 4
M  V30 4 1 3 5
M  V30 5 1 4 6
M  V30 6 1 5 7 CFG=1
M  V30 7 1 7 8
M  V30 8 1 8 9
M  V30 9 1 9 10
M  V30 10 1 10 11
M  V30 11 1 11 12
M  V30 12 1 5 6
M  V30 END BOND
M  V30 BEGIN COLLECTION
M  V30 MDLV30/STERAC1 ATOMS=(1 5)
M  V30 END COLLECTION
M  V30 END CTAB
M  END
>  <Molecule Name>
gamma-decalactone

>  <Molecule Name 2>
gamma-decalactone

>  <Database>
Essential Oil Database

>  <InChI>
InChI=1S/C10H18O2/c1-2-3-4-5-6-9-7-8-10(11)12-9/h9H,2-8H2,1H3/t9-/m0/s1

>  <InChI-Key>
IFYYFLINQYPWGJ-VIFPVBQESA-N

>  <Smiles>
CCCCCCC(CC1)OC1=O

>  <Molecular Formula>
C10H18O2

$$$$
gamma-nonalactone
Actelion Java MolfileCreator 2.0

  0  0  0  0  0  0              0 V3000
M  V30 BEGIN CTAB
M  V30 COUNTS 11 11 0 0 0
M  V30 BEGIN ATOM
M  V30 1 O 0.0 0.0 0.0 0
M  V30 2 C -1.5061 0.2 0.0 0
M  V30 3 O -2.5181 -0.8354 0.0 0
M  V30 4 C -2.271 1.5179 0.0 0
M  V30 5 C -3.9066 -0.1765 0.0 0 CFG=2
M  V30 6 C -3.7536 1.2473 0.0 0
M  V30 7 C -5.2245 -0.8825 0.0 0
M  V30 8 C -6.5424 -0.1176 0.0 0
M  V30 9 C -7.8603 -0.8236 0.0 0
M  V30 10 C -9.1782 -0.0588 0.0 0
M  V30 11 C -10.4961 -0.7648 0.0 0
M  V30 END ATOM
M  V30 BEGIN BOND
M  V30 1 2 1 2
M  V30 2 1 2 3
M  V30 3 1 2 4
M  V30 4 1 3 5
M  V30 5 1 4 6
M  V30 6 1 5 7 CFG=1
M  V30 7 1 7 8
M  V30 8 1 8 9
M  V30 9 1 9 10
M  V30 10 1 10 11
M  V30 11 1 5 6
M  V30 END BOND
M  V30 BEGIN COLLECTION
M  V30 MDLV30/STERAC1 ATOMS=(1 5)
M  V30 END COLLECTION
M  V30 END CTAB
M  END
>  <Molecule Name>
gamma-nonalactone

>  <Molecule Name 2>
gamma-nonalactone

>  <Database>
Essential Oil Database

>  <InChI>
InChI=1S/C9H16O2/c1-2-3-4-5-8-6-7-9(10)11-8/h8H,2-7H2,1H3/t8-/m0/s1

>  <InChI-Key>
OALYTRUKMRCXNH-QMMMGPOBSA-N

>  <Smiles>
CCCCCC(CC1)OC1=O

>  <Molecular Formula>
C9H16O2

$$$$
chrysanthenone
Actelion Java MolfileCreator 2.0

  0  0  0  0  0  0              0 V3000
M  V30 BEGIN CTAB
M  V30 COUNTS 11 12 0 0 0
M  V30 BEGIN ATOM
M  V30 1 O 0.0 0.0 0.0 0
M  V30 2 C 1.5096 0.0479 0.0 0
M  V30 3 C 2.2165 1.4497 0.0 0
M  V30 4 C 2.2165 -1.258 0.0 0
M  V30 5 C 3.7261 1.4976 0.0 0
M  V30 6 C 2.4921 0.1437 0.0 0
M  V30 7 C 3.7261 -1.2101 0.0 0
M  V30 8 C 4.433 0.1917 0.0 0
M  V30 9 C 4.433 2.8994 0.0 0
M  V30 10 C 3.8699 0.8147 0.0 0
M  V30 11 C 3.8699 -0.4313 0.0 0
M  V30 END ATOM
M  V30 BEGIN BOND
M  V30 1 2 1 2
M  V30 2 1 2 3
M  V30 3 1 2 4
M  V30 4 1 3 5
M  V30 5 1 3 6
M  V30 6 1 4 7
M  V30 7 2 5 8
M  V30 8 1 5 9
M  V30 9 1 6 10
M  V30 10 1 6 11
M  V30 11 1 4 6
M  V30 12 1 7 8
M  V30 END BOND
M  V30 END CTAB
M  END
>  <Molecule Name>
chrysanthenone

>  <Molecule Name 2>
chrysanthenone

>  <Database>
Essential Oil Database

>  <InChI>
InChI=1S/C10H14O/c1-6-4-5-7-9(11)8(6)10(7,2)3/h4,7-8H,5H2,1-3H3

>  <InChI-Key>
IECBDTGWSQNQID-UHFFFAOYSA-N

>  <Smiles>
CC1(C)C2C(C)=CCC1C2=O

>  <Molecular Formula>
C10H14O

$$$$
limonene oxide
Actelion Java MolfileCreator 2.0

  0  0  0  0  0  0              0 V3000
M  V30 BEGIN CTAB
M  V30 COUNTS 11 12 0 0 0
M  V30 BEGIN ATOM
M  V30 1 O 0.0 0.0 0.0 0
M  V30 2 C -1.4396 -0.7781 0.0 0
M  V30 3 C -0.0518 1.66 0.0 0
M  V30 4 C -2.8792 0.0648 0.0 0
M  V30 5 C -1.2191 0.3372 0.0 0
M  V30 6 C -1.4914 -2.3345 0.0 0
M  V30 7 C -1.4914 2.5031 0.0 0
M  V30 8 C 0.4539 3.2164 0.0 0
M  V30 9 C 1.4785 1.4266 0.0 0
M  V30 10 C -2.931 1.7249 0.0 0
M  V30 11 C -1.271 1.4525 0.0 0
M  V30 END ATOM
M  V30 BEGIN BOND
M  V30 1 1 1 2
M  V30 2 1 1 3
M  V30 3 1 2 4
M  V30 4 1 2 5
M  V30 5 1 2 6
M  V30 6 1 3 7
M  V30 7 1 3 8
M  V30 8 1 3 9
M  V30 9 1 4 10
M  V30 10 1 5 11
M  V30 11 1 7 10
M  V30 12 1 7 11
M  V30 END BOND
M  V30 END CTAB
M  END
>  <Molecule Name>
limonene oxide

>  <Molecule Name 2>
limonene oxide

>  <Database>
Essential Oil Database

>  <InChI>
InChI=1S/C10H18O/c1-9(2)8-4-6-10(3,11-9)7-5-8/h8H,4-7H2,1-3H3

>  <InChI-Key>
WEEGYLXZBRQIMU-UHFFFAOYSA-N

>  <Smiles>
CC1(C)OC2(C)CCC1CC2

>  <Molecular Formula>
C10H18O

$$$$
methyl cinnamate
Actelion Java MolfileCreator 2.0

  0  0  0  0  0  0              0 V3000
M  V30 BEGIN CTAB
M  V30 COUNTS 12 12 0 0 0
M  V30 BEGIN ATOM
M  V30 1 O 0.0 0.0 0.0 0
M  V30 2 C 1.2726 -0.7413 0.0 0
M  V30 3 O 2.5452 0.0617 0.0 0
M  V30 4 C 1.2231 -2.2239 0.0 0
M  V30 5 C 2.4958 1.6432 0.0 0
M  V30 6 C 2.4958 -2.9529 0.0 0
M  V30 7 C 2.4463 -4.4356 0.0 0
M  V30 8 C 3.719 -5.1645 0.0 0
M  V30 9 C 1.0749 -5.1645 0.0 0
M  V30 10 C 3.6695 -6.6472 0.0 0
M  V30 11 C 1.0255 -6.6472 0.0 0
M  V30 12 C 2.2981 -7.3762 0.0 0
M  V30 END ATOM
M  V30 BEGIN BOND
M  V30 1 2 1 2
M  V30 2 1 2 3
M  V30 3 1 2 4
M  V30 4 1 3 5
M  V30 5 2 4 6
M  V30 6 1 6 7
M  V30 7 2 7 8
M  V30 8 1 7 9
M  V30 9 1 8 10
M  V30 10 2 9 11
M  V30 11 2 10 12
M  V30 12 1 11 12
M  V30 END BOND
M  V30 END CTAB
M  END
>  <Molecule Name>
methyl cinnamate

>  <Molecule Name 2>
methyl cinnamate

>  <Database>
Essential Oil Database

>  <InChI>
InChI=1S/C10H10O2/c1-12-10(11)8-7-9-5-3-2-4-6-9/h2-8H,1H3/b8-7+

>  <InChI-Key>
CCRCUPLGCSFEDV-BQYQJAHWSA-N

>  <Smiles>
COC(/C=C/c1ccccc1)=O

>  <Molecular Formula>
C10H10O2

$$$$
1-octen-3-yl acetate
Actelion Java MolfileCreator 2.0

  0  0  0  0  0  0              0 V3000
M  V30 BEGIN CTAB
M  V30 COUNTS 12 11 0 0 0
M  V30 BEGIN ATOM
M  V30 1 O 0.0 0.0 0.0 0
M  V30 2 C 1.2827 -0.706 0.0 0
M  V30 3 O 2.5654 0.1294 0.0 0
M  V30 4 C 1.2356 -2.1888 0.0 0
M  V30 5 C 3.8481 -0.5766 0.0 0 CFG=2
M  V30 6 C 3.801 -2.0594 0.0 0
M  V30 7 C 5.1308 0.2588 0.0 0
M  V30 8 C 2.4242 -2.7772 0.0 0
M  V30 9 C 6.4135 -0.4471 0.0 0
M  V30 10 C 7.6962 0.3883 0.0 0
M  V30 11 C 8.979 -0.3177 0.0 0
M  V30 12 C 10.2617 0.5177 0.0 0
M  V30 END ATOM
M  V30 BEGIN BOND
M  V30 1 2 1 2
M  V30 2 1 2 3
M  V30 3 1 2 4
M  V30 4 1 5 3 CFG=1
M  V30 5 1 5 6
M  V30 6 1 5 7
M  V30 7 2 6 8
M  V30 8 1 7 9
M  V30 9 1 9 10
M  V30 10 1 10 11
M  V30 11 1 11 12
M  V30 END BOND
M  V30 BEGIN COLLECTION
M  V30 MDLV30/STERAC1 ATOMS=(1 5)
M  V30 END COLLECTION
M  V30 END CTAB
M  END
>  <Molecule Name>
1-octen-3-yl acetate

>  <Molecule Name 2>
1-octen-3-yl acetate

>  <Database>
Essential Oil Database

>  <InChI>
InChI=1S/C10H18O2/c1-4-6-7-8-10(5-2)12-9(3)11/h5,10H,2,4,6-8H2,1,3H3/t10-/m1/s1

>  <InChI-Key>
DOJDQRFOTHOBEK-SNVBAGLBSA-N

>  <Smiles>
CCCCCC(C=C)OC(C)=O

>  <Molecular Formula>
C10H18O2

$$$$
3-butylphthalide
Actelion Java MolfileCreator 2.0

  0  0  0  0  0  0              0 V3000
M  V30 BEGIN CTAB
M  V30 COUNTS 14 15 0 0 0
M  V30 BEGIN ATOM
M  V30 1 O 0.0 0.0 0.0 0
M  V30 2 C 0.419 1.4605 0.0 0
M  V30 3 O -0.4908 2.7056 0.0 0
M  V30 4 C 1.7837 1.9753 0.0 0
M  V30 5 C 0.3232 3.9506 0.0 0 CFG=2
M  V30 6 C 1.7359 3.5077 0.0 0
M  V30 7 C 3.0168 1.257 0.0 0
M  V30 8 C -0.1915 5.4112 0.0 0
M  V30 9 C 2.9689 4.2858 0.0 0
M  V30 10 C 4.2499 2.0351 0.0 0
M  V30 11 C -1.688 5.7703 0.0 0
M  V30 12 C 4.202 3.5675 0.0 0
M  V30 13 C -2.2028 7.2309 0.0 0
M  V30 14 C -3.6992 7.59 0.0 0
M  V30 END ATOM
M  V30 BEGIN BOND
M  V30 1 2 1 2
M  V30 2 1 2 3
M  V30 3 1 2 4
M  V30 4 1 3 5
M  V30 5 2 4 6
M  V30 6 1 4 7
M  V30 7 1 5 8 CFG=1
M  V30 8 1 6 9
M  V30 9 2 7 10
M  V30 10 1 8 11
M  V30 11 2 9 12
M  V30 12 1 11 13
M  V30 13 1 13 14
M  V30 14 1 5 6
M  V30 15 1 10 12
M  V30 END BOND
M  V30 BEGIN COLLECTION
M  V30 MDLV30/STERAC1 ATOMS=(1 5)
M  V30 END COLLECTION
M  V30 END CTAB
M  END
>  <Molecule Name>
3-butylphthalide

>  <Molecule Name 2>
3-butylphthalide

>  <Database>
Essential Oil Database

>  <InChI>
InChI=1S/C12H14O2/c1-2-3-8-11-9-6-4-5-7-10(9)12(13)14-11/h4-7,11H,2-3,8H2,1H3/t11-/m0/s1

>  <InChI-Key>
HJXMNVQARNZTEE-NSHDSACASA-N

>  <Smiles>
CCCCC(c1c2cccc1)OC2=O

>  <Molecular Formula>
C12H14O2

$$$$
sedanolide
Actelion Java MolfileCreator 2.0

  0  0  0  0  0  0              0 V3000
M  V30 BEGIN CTAB
M  V30 COUNTS 14 15 0 0 0
M  V30 BEGIN ATOM
M  V30 1 O 0.0 0.0 0.0 0
M  V30 2 C 0.4207 -1.4063 0.0 0
M  V30 3 O -0.5288 -2.5963 0.0 0
M  V30 4 C 1.827 -1.827 0.0 0
M  V30 5 C 0.3245 -3.7863 0.0 0
M  V30 6 C 3.1011 -1.0096 0.0 0
M  V30 7 C 1.7789 -3.3055 0.0 0
M  V30 8 C -0.1923 -5.1926 0.0 0
M  V30 9 C 4.3752 -1.7308 0.0 0
M  V30 10 C 3.053 -4.0387 0.0 0
M  V30 11 C -1.7308 -5.457 0.0 0
M  V30 12 C 4.3272 -3.2093 0.0 0
M  V30 13 C -2.2477 -6.8634 0.0 0
M  V30 14 C -3.7863 -7.1278 0.0 0
M  V30 END ATOM
M  V30 BEGIN BOND
M  V30 1 2 1 2
M  V30 2 1 2 3
M  V30 3 1 2 4
M  V30 4 1 3 5
M  V30 5 2 4 6
M  V30 6 1 4 7
M  V30 7 1 5 8
M  V30 8 1 6 9
M  V30 9 1 7 10
M  V30 10 1 8 11
M  V30 11 1 9 12
M  V30 12 1 11 13
M  V30 13 1 13 14
M  V30 14 1 5 7
M  V30 15 1 10 12
M  V30 END BOND
M  V30 END CTAB
M  END
>  <Molecule Name>
sedanolide

>  <Molecule Name 2>
sedanolide

>  <Database>
Essential Oil Database

>  <InChI>
InChI=1S/C12H18O2/c1-2-3-8-11-9-6-4-5-7-10(9)12(13)14-11/h7,9,11H,2-6,8H2,1H3

>  <InChI-Key>
UPJFTVFLSIQQAV-UHFFFAOYSA-N

>  <Smiles>
CCCCC(C1C2=CCCC1)OC2=O

>  <Molecular Formula>
C12H18O2

$$$$
valerophenone
Actelion Java MolfileCreator 2.0

  0  0  0  0  0  0              0 V3000
M  V30 BEGIN CTAB
M  V30 COUNTS 12 12 0 0 0
M  V30 BEGIN ATOM
M  V30 1 O 0.0 0.0 0.0 0
M  V30 2 C -0.0464 -1.463 0.0 0
M  V30 3 C 1.2192 -2.1946 0.0 0
M  V30 4 C -1.405 -2.1946 0.0 0
M  V30 5 C 2.4848 -1.3701 0.0 0
M  V30 6 C 1.1727 -3.6576 0.0 0
M  V30 7 C -2.7635 -1.3701 0.0 0
M  V30 8 C 3.7505 -2.0668 0.0 0
M  V30 9 C 2.4384 -4.3427 0.0 0
M  V30 10 C -4.1221 -2.0668 0.0 0
M  V30 11 C 3.7041 -3.5299 0.0 0
M  V30 12 C -5.4807 -1.2424 0.0 0
M  V30 END ATOM
M  V30 BEGIN BOND
M  V30 1 2 1 2
M  V30 2 1 2 3
M  V30 3 1 2 4
M  V30 4 2 3 5
M  V30 5 1 3 6
M  V30 6 1 4 7
M  V30 7 1 5 8
M  V30 8 2 6 9
M  V30 9 1 7 10
M  V30 10 2 8 11
M  V30 11 1 10 12
M  V30 12 1 9 11
M  V30 END BOND
M  V30 END CTAB
M  END
>  <Molecule Name>
valerophenone

>  <Molecule Name 2>
valerophenone

>  <Database>
Essential Oil Database

>  <InChI>
InChI=1S/C11H14O/c1-2-3-9-11(12)10-7-5-4-6-8-10/h4-8H,2-3,9H2,1H3

>  <InChI-Key>
XKGLSKVNOSHTAD-UHFFFAOYSA-N

>  <Smiles>
CCCCC(c1ccccc1)=O

>  <Molecular Formula>
C11H14O

$$$$
dihydroagarofuran
Actelion Java MolfileCreator 2.0

  0  0  0  0  0  0              0 V3000
M  V30 BEGIN CTAB
M  V30 COUNTS 16 18 0 0 0
M  V30 BEGIN ATOM
M  V30 1 O 0.0 0.0 0.0 0
M  V30 2 C 1.2405 -0.9661 0.0 0 CFG=2
M  V30 3 C -1.4075 -0.7634 0.0 0
M  V30 4 C 1.9323 -2.326 0.0 0 CFG=2
M  V30 5 C 2.1828 0.2743 0.0 0 CFG=1
M  V30 6 C 0.0954 -1.6341 0.0 0
M  V30 7 C -1.1093 -2.2425 0.0 0 CFG=1
M  V30 8 C -2.3737 0.4771 0.0 0
M  V30 9 C -2.9343 -0.8826 0.0 0
M  V30 10 C 1.1212 -3.662 0.0 0
M  V30 11 C 3.3876 -2.4095 0.0 0
M  V30 12 C 2.5884 -3.5904 0.0 0
M  V30 13 C 3.6381 0.1789 0.0 0
M  V30 14 C 1.5626 1.7057 0.0 0
M  V30 15 C -0.4294 -3.5785 0.0 0
M  V30 16 C 4.1987 -1.1331 0.0 0
M  V30 END ATOM
M  V30 BEGIN BOND
M  V30 1 1 2 1 CFG=1
M  V30 2 1 1 3
M  V30 3 1 2 4
M  V30 4 1 2 5
M  V30 5 1 2 6
M  V30 6 1 3 7
M  V30 7 1 3 8
M  V30 8 1 3 9
M  V30 9 1 4 10
M  V30 10 1 4 11
M  V30 11 1 4 12 CFG=3
M  V30 12 1 5 13
M  V30 13 1 5 14 CFG=3
M  V30 14 1 7 15 CFG=1
M  V30 15 1 11 16
M  V30 16 1 6 7
M  V30 17 1 10 15
M  V30 18 1 13 16
M  V30 END BOND
M  V30 BEGIN COLLECTION
M  V30 MDLV30/STEABS ATOMS=(4 2 4 5 7)
M  V30 END COLLECTION
M  V30 END CTAB
M  END
>  <Molecule Name>
dihydroagarofuran

>  <Molecule Name 2>
dihydroagarofuran

>  <Database>
Essential Oil Database

>  <InChI>
InChI=1S/C15H26O/c1-11-6-5-8-14(4)9-7-12-10-15(11,14)16-13(12,2)3/h11-12H,5-10H2,1-4H3/t11-,12-,14+,15+/m1/s1

>  <InChI-Key>
HVAVUZLEYSAYGE-UXOAXIEHSA-N

>  <Smiles>
C[C@H]1[C@]2(C3)OC(C)(C)[C@@H]3CC[C@]2(C)CCC1

>  <Molecular Formula>
C15H26O

$$$$
sclareol
Actelion Java MolfileCreator 2.0

  0  0  0  0  0  0              0 V3000
M  V30 BEGIN CTAB
M  V30 COUNTS 22 23 0 0 0
M  V30 BEGIN ATOM
M  V30 1 O 0.0 0.0 0.0 0
M  V30 2 C 1.4499 -0.2211 0.0 0 CFG=1
M  V30 3 C 2.7156 -0.9584 0.0 0 CFG=1
M  V30 4 C 1.4008 1.3516 0.0 0
M  V30 5 C 0.8724 -1.5974 0.0 0
M  V30 6 C 3.9812 -0.1597 0.0 0 CFG=2
M  V30 7 C 2.6664 -2.433 0.0 0
M  V30 8 C 2.6664 2.1503 0.0 0
M  V30 9 C 3.9321 1.4131 0.0 0 CFG=1
M  V30 10 C 5.2469 -0.897 0.0 0
M  V30 11 C 3.9321 -1.6342 0.0 0
M  V30 12 C 3.9321 -3.1702 0.0 0
M  V30 13 C 5.1978 2.2118 0.0 0
M  V30 14 C 6.5126 -0.0983 0.0 0
M  V30 15 C 3.8829 -4.6448 0.0 0 CFG=1
M  V30 16 C 6.4634 1.4868 0.0 0
M  V30 17 C 4.1779 3.416 0.0 0
M  V30 18 C 6.1193 3.416 0.0 0
M  V30 19 O 5.3575 -4.5956 0.0 0
M  V30 20 C 3.8338 -6.1193 0.0 0
M  V30 21 C 2.3101 -4.5956 0.0 0
M  V30 22 C 5.0994 -6.8443 0.0 0
M  V30 END ATOM
M  V30 BEGIN BOND
M  V30 1 1 2 1 CFG=3
M  V30 2 1 2 3
M  V30 3 1 2 4
M  V30 4 1 2 5
M  V30 5 1 3 6
M  V30 6 1 3 7 CFG=1
M  V30 7 1 4 8
M  V30 8 1 6 9
M  V30 9 1 6 10
M  V30 10 1 6 11 CFG=1
M  V30 11 1 7 12
M  V30 12 1 9 13
M  V30 13 1 10 14
M  V30 14 1 15 12 CFG=1
M  V30 15 1 13 16
M  V30 16 1 13 17
M  V30 17 1 13 18
M  V30 18 1 15 19
M  V30 19 1 15 20
M  V30 20 1 15 21
M  V30 21 2 20 22
M  V30 22 1 9 8 CFG=1
M  V30 23 1 14 16
M  V30 END BOND
M  V30 BEGIN COLLECTION
M  V30 MDLV30/STEABS ATOMS=(5 2 3 6 9 15)
M  V30 END COLLECTION
M  V30 END CTAB
M  END
>  <Molecule Name>
sclareol

>  <Molecule Name 2>
sclareol

>  <Database>
Essential Oil Database

>  <InChI>
InChI=1S/C20H36O2/c1-7-18(4,21)13-9-16-19(5)12-8-11-17(2,3)15(19)10-14-20(16,6)22/h7,15-16,21-22H,1,8-14H2,2-6H3/t15-,16+,18-,19-,20+/m0/s1

>  <InChI-Key>
XVULBTBTFGYVRC-HHUCQEJWSA-N

>  <Smiles>
C[C@@](CC[C@H]([C@]1(C)[C@@H](CC2)C(C)(C)CCC1)[C@]2(C)O)(C=C)O

>  <Molecular Formula>
C20H36O2

$$$$
(z)-methyl isoeugenol
Actelion Java MolfileCreator 2.0

  0  0  0  0  0  0              0 V3000
M  V30 BEGIN CTAB
M  V30 COUNTS 13 13 0 0 0
M  V30 BEGIN ATOM
M  V30 1 O 0.0 0.0 0.0 0
M  V30 2 C -0.0487 -1.4624 0.0 0
M  V30 3 C -1.3527 0.7799 0.0 0
M  V30 4 C -1.4015 -2.1815 0.0 0
M  V30 5 C 1.2065 -2.1815 0.0 0
M  V30 6 O -2.7543 -1.3893 0.0 0
M  V30 7 C -1.4502 -3.6439 0.0 0
M  V30 8 C 1.1577 -3.6439 0.0 0
M  V30 9 C -4.107 -2.1083 0.0 0
M  V30 10 C -0.1949 -4.363 0.0 0
M  V30 11 C 2.413 -4.363 0.0 0
M  V30 12 C 3.6683 -3.5708 0.0 0
M  V30 13 C 3.6195 -2.0108 0.0 0
M  V30 END ATOM
M  V30 BEGIN BOND
M  V30 1 1 1 2
M  V30 2 1 1 3
M  V30 3 2 2 4
M  V30 4 1 2 5
M  V30 5 1 4 6
M  V30 6 1 4 7
M  V30 7 2 5 8
M  V30 8 1 6 9
M  V30 9 2 7 10
M  V30 10 1 8 11
M  V30 11 2 11 12
M  V30 12 1 12 13
M  V30 13 1 8 10
M  V30 END BOND
M  V30 END CTAB
M  END
>  <Molecule Name>
(z)-methyl isoeugenol

>  <Molecule Name 2>
(z)-methyl isoeugenol

>  <Database>
Essential Oil Database

>  <InChI>
InChI=1S/C11H14O2/c1-4-5-9-6-7-10(12-2)11(8-9)13-3/h4-8H,1-3H3/b5-4-

>  <InChI-Key>
NNWHUJCUHAELCL-PLNGDYQASA-N

>  <Smiles>
C/C=C\c(cc1)cc(OC)c1OC

>  <Molecular Formula>
C11H14O2

$$$$
cyclopentadecanone
Actelion Java MolfileCreator 2.0

  0  0  0  0  0  0              0 V3000
M  V30 BEGIN CTAB
M  V30 COUNTS 16 16 0 0 0
M  V30 BEGIN ATOM
M  V30 1 O 0.0 0.0 0.0 0
M  V30 2 C 0.3217 -1.4212 0.0 0
M  V30 3 C 1.5284 -0.5363 0.0 0
M  V30 4 C -1.3944 -1.1932 0.0 0
M  V30 5 C 2.6681 -1.4078 0.0 0
M  V30 6 C -2.3731 -2.3329 0.0 0
M  V30 7 C 2.0782 -2.7754 0.0 0
M  V30 8 C -1.8502 -3.6871 0.0 0
M  V30 9 C 2.5877 -4.3039 0.0 0
M  V30 10 C -2.829 -4.8268 0.0 0
M  V30 11 C 1.6089 -5.4435 0.0 0
M  V30 12 C -2.3061 -6.181 0.0 0
M  V30 13 C 2.1318 -6.7977 0.0 0
M  V30 14 C -0.8581 -6.3553 0.0 0
M  V30 15 C 1.153 -7.9374 0.0 0
M  V30 16 C -0.3351 -7.7095 0.0 0
M  V30 END ATOM
M  V30 BEGIN BOND
M  V30 1 2 1 2
M  V30 2 1 2 3
M  V30 3 1 2 4
M  V30 4 1 3 5
M  V30 5 1 4 6
M  V30 6 1 5 7
M  V30 7 1 6 8
M  V30 8 1 7 9
M  V30 9 1 8 10
M  V30 10 1 9 11
M  V30 11 1 10 12
M  V30 12 1 11 13
M  V30 13 1 12 14
M  V30 14 1 13 15
M  V30 15 1 14 16
M  V30 16 1 15 16
M  V30 END BOND
M  V30 END CTAB
M  END
>  <Molecule Name>
cyclopentadecanone

>  <Molecule Name 2>
cyclopentadecanone

>  <Database>
Essential Oil Database

>  <InChI>
InChI=1S/C15H28O/c16-15-13-11-9-7-5-3-1-2-4-6-8-10-12-14-15/h1-14H2

>  <InChI-Key>
OSOIQJGOYGSIMF-UHFFFAOYSA-N

>  <Smiles>
O=C1CCCCCCCCCCCCCC1

>  <Molecular Formula>
C15H28O

$$$$
eicosanol
Actelion Java MolfileCreator 2.0

  0  0  0  0  0  0              0 V3000
M  V30 BEGIN CTAB
M  V30 COUNTS 21 20 0 0 0
M  V30 BEGIN ATOM
M  V30 1 O 0.0 0.0 0.0 0
M  V30 2 C 1.284 0.8152 0.0 0
M  V30 3 C 2.5681 0.0815 0.0 0
M  V30 4 C 3.8522 0.8968 0.0 0
M  V30 5 C 5.1363 0.163 0.0 0
M  V30 6 C 6.4204 0.9783 0.0 0
M  V30 7 C 7.7045 0.2445 0.0 0
M  V30 8 C 8.9886 1.0598 0.0 0
M  V30 9 C 10.2727 0.3261 0.0 0
M  V30 10 C 11.5568 1.1414 0.0 0
M  V30 11 C 12.8408 0.4076 0.0 0
M  V30 12 C 14.1249 1.2229 0.0 0
M  V30 13 C 15.409 0.4891 0.0 0
M  V30 14 C 16.6931 1.3044 0.0 0
M  V30 15 C 17.9772 0.5707 0.0 0
M  V30 16 C 19.2613 1.386 0.0 0
M  V30 17 C 20.5454 0.6522 0.0 0
M  V30 18 C 21.8295 1.4675 0.0 0
M  V30 19 C 23.1136 0.7337 0.0 0
M  V30 20 C 24.3976 1.549 0.0 0
M  V30 21 C 25.6817 0.8152 0.0 0
M  V30 END ATOM
M  V30 BEGIN BOND
M  V30 1 1 1 2
M  V30 2 1 2 3
M  V30 3 1 3 4
M  V30 4 1 4 5
M  V30 5 1 5 6
M  V30 6 1 6 7
M  V30 7 1 7 8
M  V30 8 1 8 9
M  V30 9 1 9 10
M  V30 10 1 10 11
M  V30 11 1 11 12
M  V30 12 1 12 13
M  V30 13 1 13 14
M  V30 14 1 14 15
M  V30 15 1 15 16
M  V30 16 1 16 17
M  V30 17 1 17 18
M  V30 18 1 18 19
M  V30 19 1 19 20
M  V30 20 1 20 21
M  V30 END BOND
M  V30 END CTAB
M  END
>  <Molecule Name>
eicosanol

>  <Molecule Name 2>
eicosanol

>  <Database>
Essential Oil Database

>  <InChI>
InChI=1S/C20H42O/c1-2-3-4-5-6-7-8-9-10-11-12-13-14-15-16-17-18-19-20-21/h21H,2-20H2,1H3

>  <InChI-Key>
BTFJIXJJCSYFAL-UHFFFAOYSA-N

>  <Smiles>
CCCCCCCCCCCCCCCCCCCCO

>  <Molecular Formula>
C20H42O

$$$$
muscone
Actelion Java MolfileCreator 2.0

  0  0  0  0  0  0              0 V3000
M  V30 BEGIN CTAB
M  V30 COUNTS 17 17 0 0 0
M  V30 BEGIN ATOM
M  V30 1 O 0.0 0.0 0.0 0
M  V30 2 C 1.4417 -0.1644 0.0 0
M  V30 3 C 2.3396 1.0876 0.0 0
M  V30 4 C 1.9349 -1.5176 0.0 0
M  V30 5 C 3.9332 0.9738 0.0 0 CFG=2
M  V30 6 C 0.9358 -2.6685 0.0 0
M  V30 7 C 5.1473 1.8843 0.0 0
M  V30 8 C 3.5284 2.4914 0.0 0
M  V30 9 C 1.4291 -4.0217 0.0 0
M  V30 10 C 6.2981 0.9864 0.0 0
M  V30 11 C 2.8708 -4.1861 0.0 0
M  V30 12 C 5.7417 -0.3794 0.0 0
M  V30 13 C 3.364 -5.5393 0.0 0
M  V30 14 C 6.2223 -1.897 0.0 0
M  V30 15 C 4.8058 -5.7037 0.0 0
M  V30 16 C 5.2231 -3.0479 0.0 0
M  V30 17 C 5.7037 -4.4517 0.0 0
M  V30 END ATOM
M  V30 BEGIN BOND
M  V30 1 2 1 2
M  V30 2 1 2 3
M  V30 3 1 2 4
M  V30 4 1 3 5
M  V30 5 1 4 6
M  V30 6 1 5 7
M  V30 7 1 5 8 CFG=3
M  V30 8 1 6 9
M  V30 9 1 7 10
M  V30 10 1 9 11
M  V30 11 1 10 12
M  V30 12 1 11 13
M  V30 13 1 12 14
M  V30 14 1 13 15
M  V30 15 1 14 16
M  V30 16 1 15 17
M  V30 17 1 16 17
M  V30 END BOND
M  V30 BEGIN COLLECTION
M  V30 MDLV30/STERAC1 ATOMS=(1 5)
M  V30 END COLLECTION
M  V30 END CTAB
M  END
>  <Molecule Name>
muscone

>  <Molecule Name 2>
muscone

>  <Database>
Essential Oil Database

>  <InChI>
InChI=1S/C16H30O/c1-15-12-10-8-6-4-2-3-5-7-9-11-13-16(17)14-15/h15H,2-14H2,1H3/t15-/m0/s1

>  <InChI-Key>
ALHUZKCOMYUFRB-HNNXBMFYSA-N

>  <Smiles>
CC(CCCCCCCCCCCC1)CC1=O

>  <Molecular Formula>
C16H30O

$$$$
oxacyclotetradecan-2-one
Actelion Java MolfileCreator 2.0

  0  0  0  0  0  0              0 V3000
M  V30 BEGIN CTAB
M  V30 COUNTS 15 15 0 0 0
M  V30 BEGIN ATOM
M  V30 1 O 0.0 0.0 0.0 0
M  V30 2 C 0.8488 -1.181 0.0 0
M  V30 3 O 0.1722 -2.5342 0.0 0
M  V30 4 C 2.325 -0.9472 0.0 0
M  V30 5 C -1.4024 -2.6695 0.0 0
M  V30 6 C 3.1739 -2.1282 0.0 0
M  V30 7 C -2.079 -4.0227 0.0 0
M  V30 8 C 2.4973 -3.4814 0.0 0
M  V30 9 C -1.2302 -5.2037 0.0 0
M  V30 10 C 3.3461 -4.6624 0.0 0
M  V30 11 C -1.9068 -6.557 0.0 0
M  V30 12 C 2.6695 -6.0157 0.0 0
M  V30 13 C -1.0579 -7.738 0.0 0
M  V30 14 C 1.0948 -6.151 0.0 0
M  V30 15 C 0.4182 -7.5042 0.0 0
M  V30 END ATOM
M  V30 BEGIN BOND
M  V30 1 2 1 2
M  V30 2 1 2 3
M  V30 3 1 2 4
M  V30 4 1 3 5
M  V30 5 1 4 6
M  V30 6 1 5 7
M  V30 7 1 6 8
M  V30 8 1 7 9
M  V30 9 1 8 10
M  V30 10 1 9 11
M  V30 11 1 10 12
M  V30 12 1 11 13
M  V30 13 1 12 14
M  V30 14 1 13 15
M  V30 15 1 14 15
M  V30 END BOND
M  V30 END CTAB
M  END
>  <Molecule Name>
oxacyclotetradecan-2-one

>  <Molecule Name 2>
oxacyclotetradecan-2-one

>  <Database>
Essential Oil Database

>  <InChI>
InChI=1S/C13H24O2/c14-13-11-9-7-5-3-1-2-4-6-8-10-12-15-13/h1-12H2

>  <InChI-Key>
IUDIJIVSWGWJNV-UHFFFAOYSA-N

>  <Smiles>
O=C1OCCCCCCCCCCCC1

>  <Molecular Formula>
C13H24O2

$$$$
isoamyl-2-methyl butyrate
Actelion Java MolfileCreator 2.0

  0  0  0  0  0  0              0 V3000
M  V30 BEGIN CTAB
M  V30 COUNTS 12 11 0 0 0
M  V30 BEGIN ATOM
M  V30 1 O 0.0 0.0 0.0 0
M  V30 2 C -0.0484 1.549 0.0 0
M  V30 3 O 1.198 2.3356 0.0 0
M  V30 4 C -1.3917 2.3356 0.0 0 CFG=2
M  V30 5 C 2.4445 1.6095 0.0 0
M  V30 6 C -2.735 1.6095 0.0 0
M  V30 7 C -1.4401 3.8847 0.0 0
M  V30 8 C 3.691 2.3961 0.0 0
M  V30 9 C -4.0783 2.3961 0.0 0
M  V30 10 C 4.9375 1.67 0.0 0
M  V30 11 C 6.184 2.4566 0.0 0
M  V30 12 C 4.8891 0.2178 0.0 0
M  V30 END ATOM
M  V30 BEGIN BOND
M  V30 1 2 1 2
M  V30 2 1 2 3
M  V30 3 1 2 4
M  V30 4 1 3 5
M  V30 5 1 4 6
M  V30 6 1 4 7 CFG=3
M  V30 7 1 5 8
M  V30 8 1 6 9
M  V30 9 1 8 10
M  V30 10 1 10 11
M  V30 11 1 10 12
M  V30 END BOND
M  V30 BEGIN COLLECTION
M  V30 MDLV30/STERAC1 ATOMS=(1 4)
M  V30 END COLLECTION
M  V30 END CTAB
M  END
>  <Molecule Name>
isoamyl-2-methyl butyrate

>  <Molecule Name 2>
isoamyl-2-methyl butyrate

>  <Database>
Essential Oil Database

>  <InChI>
InChI=1S/C10H20O2/c1-5-9(4)10(11)12-7-6-8(2)3/h8-9H,5-7H2,1-4H3/t9-/m0/s1

>  <InChI-Key>
VGIRHYHLQKDEPP-VIFPVBQESA-N

>  <Smiles>
CCC(C)C(OCCC(C)C)=O

>  <Molecular Formula>
C10H20O2

$$$$
1-(4-methoxy phenyl)-2-propanone
Actelion Java MolfileCreator 2.0

  0  0  0  0  0  0              0 V3000
M  V30 BEGIN CTAB
M  V30 COUNTS 12 12 0 0 0
M  V30 BEGIN ATOM
M  V30 1 O 0.0 0.0 0.0 0
M  V30 2 C 1.2726 0.8031 0.0 0
M  V30 3 C 2.5452 0.0741 0.0 0
M  V30 4 C 1.2231 2.3846 0.0 0
M  V30 5 C 2.4958 -1.4085 0.0 0
M  V30 6 C 3.7684 -2.1375 0.0 0
M  V30 7 C 1.1243 -2.1375 0.0 0
M  V30 8 C 3.719 -3.6201 0.0 0
M  V30 9 C 1.0749 -3.6201 0.0 0
M  V30 10 C 2.3475 -4.3491 0.0 0
M  V30 11 O 2.2981 -5.8317 0.0 0
M  V30 12 C 3.5707 -6.5731 0.0 0
M  V30 END ATOM
M  V30 BEGIN BOND
M  V30 1 2 1 2
M  V30 2 1 2 3
M  V30 3 1 2 4
M  V30 4 1 3 5
M  V30 5 2 5 6
M  V30 6 1 5 7
M  V30 7 1 6 8
M  V30 8 2 7 9
M  V30 9 2 8 10
M  V30 10 1 10 11
M  V30 11 1 11 12
M  V30 12 1 9 10
M  V30 END BOND
M  V30 END CTAB
M  END
>  <Molecule Name>
1-(4-methoxy phenyl)-2-propanone

>  <Molecule Name 2>
1-(4-methoxy phenyl)-2-propanone

>  <Database>
Essential Oil Database

>  <InChI>
InChI=1S/C10H12O2/c1-8(11)7-9-3-5-10(12-2)6-4-9/h3-6H,7H2,1-2H3

>  <InChI-Key>
WFWKNGZODAOLEO-UHFFFAOYSA-N

>  <Smiles>
CC(Cc(cc1)ccc1OC)=O

>  <Molecular Formula>
C10H12O2

$$$$
hexadecane
Actelion Java MolfileCreator 2.0

  0  0  0  0  0  0              0 V3000
M  V30 BEGIN CTAB
M  V30 COUNTS 16 15 0 0 0
M  V30 BEGIN ATOM
M  V30 1 C 0.0 0.0 0.0 0
M  V30 2 C 1.2668 -0.6967 0.0 0
M  V30 3 C -1.3512 -0.6967 0.0 0
M  V30 4 C 2.5336 0.0844 0.0 0
M  V30 5 C -2.7025 0.0844 0.0 0
M  V30 6 C 3.8004 -0.6122 0.0 0
M  V30 7 C -4.0537 -0.6122 0.0 0
M  V30 8 C 5.0672 0.1689 0.0 0
M  V30 9 C -5.405 0.1689 0.0 0
M  V30 10 C 6.334 -0.5278 0.0 0
M  V30 11 C -6.7562 -0.5278 0.0 0
M  V30 12 C 7.6008 0.2533 0.0 0
M  V30 13 C -8.1075 0.2533 0.0 0
M  V30 14 C 8.8676 -0.4433 0.0 0
M  V30 15 C -9.4587 -0.4433 0.0 0
M  V30 16 C 10.1344 0.3378 0.0 0
M  V30 END ATOM
M  V30 BEGIN BOND
M  V30 1 1 1 2
M  V30 2 1 1 3
M  V30 3 1 2 4
M  V30 4 1 3 5
M  V30 5 1 4 6
M  V30 6 1 5 7
M  V30 7 1 6 8
M  V30 8 1 7 9
M  V30 9 1 8 10
M  V30 10 1 9 11
M  V30 11 1 10 12
M  V30 12 1 11 13
M  V30 13 1 12 14
M  V30 14 1 13 15
M  V30 15 1 14 16
M  V30 END BOND
M  V30 END CTAB
M  END
>  <Molecule Name>
hexadecane

>  <Molecule Name 2>
hexadecane

>  <Database>
Essential Oil Database

>  <InChI>
InChI=1S/C16H34/c1-3-5-7-9-11-13-15-16-14-12-10-8-6-4-2/h3-16H2,1-2H3

>  <InChI-Key>
DCAYPVUWAIABOU-UHFFFAOYSA-N

>  <Smiles>
CCCCCCCCCCCCCCCC

>  <Molecular Formula>
C16H34

$$$$
methyl-2-methyl butyrate
Actelion Java MolfileCreator 2.0

  0  0  0  0  0  0              0 V3000
M  V30 BEGIN CTAB
M  V30 COUNTS 8 7 0 0 0
M  V30 BEGIN ATOM
M  V30 1 O 0.0 0.0 0.0 0
M  V30 2 C -0.0464 -1.4634 0.0 0
M  V30 3 O 1.2195 -2.1487 0.0 0
M  V30 4 C -1.4053 -2.1487 0.0 0 CFG=2
M  V30 5 C 2.4855 -1.3356 0.0 0
M  V30 6 C -2.7643 -1.3356 0.0 0
M  V30 7 C -1.4518 -3.6121 0.0 0
M  V30 8 C -4.1232 -2.0209 0.0 0
M  V30 END ATOM
M  V30 BEGIN BOND
M  V30 1 2 1 2
M  V30 2 1 2 3
M  V30 3 1 2 4
M  V30 4 1 3 5
M  V30 5 1 4 6
M  V30 6 1 4 7 CFG=1
M  V30 7 1 6 8
M  V30 END BOND
M  V30 BEGIN COLLECTION
M  V30 MDLV30/STERAC1 ATOMS=(1 4)
M  V30 END COLLECTION
M  V30 END CTAB
M  END
>  <Molecule Name>
methyl-2-methyl butyrate

>  <Molecule Name 2>
methyl-2-methyl butyrate

>  <Database>
Essential Oil Database

>  <InChI>
InChI=1S/C6H12O2/c1-4-5(2)6(7)8-3/h5H,4H2,1-3H3/t5-/m0/s1

>  <InChI-Key>
OCWLYWIFNDCWRZ-YFKPBYRVSA-N

>  <Smiles>
CCC(C)C(OC)=O

>  <Molecular Formula>
C6H12O2

$$$$
beta-asarone
Actelion Java MolfileCreator 2.0

  0  0  0  0  0  0              0 V3000
M  V30 BEGIN CTAB
M  V30 COUNTS 15 15 0 0 0
M  V30 BEGIN ATOM
M  V30 1 O 0.0 0.0 0.0 0
M  V30 2 C -0.0491 -1.4757 0.0 0
M  V30 3 C 1.2666 0.7993 0.0 0
M  V30 4 C -1.4142 -2.2013 0.0 0
M  V30 5 C 1.2174 -2.2013 0.0 0
M  V30 6 O -2.7792 -1.4019 0.0 0
M  V30 7 C -1.4634 -3.677 0.0 0
M  V30 8 C 1.1682 -3.677 0.0 0
M  V30 9 C -2.8284 0.1721 0.0 0
M  V30 10 C -0.1967 -4.4026 0.0 0
M  V30 11 O 2.4349 -4.4026 0.0 0
M  V30 12 C -0.2459 -5.8783 0.0 0
M  V30 13 C 3.7016 -3.5909 0.0 0
M  V30 14 C 1.0207 -6.6162 0.0 0
M  V30 15 C 2.2873 -5.8168 0.0 0
M  V30 END ATOM
M  V30 BEGIN BOND
M  V30 1 1 1 2
M  V30 2 1 1 3
M  V30 3 2 2 4
M  V30 4 1 2 5
M  V30 5 1 4 6
M  V30 6 1 4 7
M  V30 7 2 5 8
M  V30 8 1 6 9
M  V30 9 2 7 10
M  V30 10 1 8 11
M  V30 11 1 10 12
M  V30 12 1 11 13
M  V30 13 2 12 14
M  V30 14 1 14 15
M  V30 15 1 8 10
M  V30 END BOND
M  V30 END CTAB
M  END
>  <Molecule Name>
beta-asarone

>  <Molecule Name 2>
beta-asarone

>  <Database>
Essential Oil Database

>  <InChI>
InChI=1S/C12H16O3/c1-5-6-9-7-11(14-3)12(15-4)8-10(9)13-2/h5-8H,1-4H3/b6-5-

>  <InChI-Key>
RKFAZBXYICVSKP-WAYWQWQTSA-N

>  <Smiles>
C/C=C\c(c(OC)c1)cc(OC)c1OC

>  <Molecular Formula>
C12H16O3

$$$$
cis-beta-terpineol
Actelion Java MolfileCreator 2.0

  0  0  0  0  0  0              0 V3000
M  V30 BEGIN CTAB
M  V30 COUNTS 11 11 0 0 0
M  V30 BEGIN ATOM
M  V30 1 O 0.0 0.0 0.0 0
M  V30 2 C -1.0394 -1.1211 0.0 0 CFG=1
M  V30 3 C -2.4058 -1.8102 0.0 0
M  V30 4 C 0.2335 -1.8102 0.0 0
M  V30 5 C -2.0788 0.0934 0.0 0
M  V30 6 C -2.4525 -3.2817 0.0 0
M  V30 7 C 0.1868 -3.2817 0.0 0
M  V30 8 C -1.1795 -3.9708 0.0 0 CFG=1
M  V30 9 C -1.2262 -5.4424 0.0 0
M  V30 10 C -2.5927 -6.1548 0.0 0
M  V30 11 C 0.0467 -6.1548 0.0 0
M  V30 END ATOM
M  V30 BEGIN BOND
M  V30 1 1 2 1 CFG=3
M  V30 2 1 2 3
M  V30 3 1 2 4
M  V30 4 1 2 5
M  V30 5 1 3 6
M  V30 6 1 4 7
M  V30 7 1 6 8
M  V30 8 1 8 9 CFG=1
M  V30 9 2 9 10
M  V30 10 1 9 11
M  V30 11 1 7 8
M  V30 END BOND
M  V30 BEGIN COLLECTION
M  V30 MDLV30/STEABS ATOMS=(2 2 8)
M  V30 END COLLECTION
M  V30 END CTAB
M  END
>  <Molecule Name>
cis-beta-terpineol

>  <Molecule Name 2>
cis-beta-terpineol

>  <Database>
Essential Oil Database

>  <InChI>
InChI=1S/C10H18O/c1-8(2)9-4-6-10(3,11)7-5-9/h9,11H,1,4-7H2,2-3H3/t9-,10-

>  <InChI-Key>
RUJPNZNXGCHGID-MGCOHNPYSA-N

>  <Smiles>
C[C@](CC1)(CC[C@H]1C(C)=C)O

>  <Molecular Formula>
C10H18O

$$$$
2,4-dimethoxyacetophenone
Actelion Java MolfileCreator 2.0

  0  0  0  0  0  0              0 V3000
M  V30 BEGIN CTAB
M  V30 COUNTS 13 13 0 0 0
M  V30 BEGIN ATOM
M  V30 1 O 0.0 0.0 0.0 0
M  V30 2 C -1.3538 -0.7195 0.0 0
M  V30 3 C -1.4026 -2.1831 0.0 0
M  V30 4 C -2.7076 0.0609 0.0 0
M  V30 5 C -0.1463 -2.9027 0.0 0
M  V30 6 C -2.7564 -2.9027 0.0 0
M  V30 7 O -2.7564 1.6221 0.0 0
M  V30 8 C -0.1951 -4.3663 0.0 0
M  V30 9 C -2.8052 -4.3663 0.0 0
M  V30 10 C -4.1102 2.4149 0.0 0
M  V30 11 C -1.5489 -5.0859 0.0 0
M  V30 12 O -1.5977 -6.5495 0.0 0
M  V30 13 C -0.3415 -7.2813 0.0 0
M  V30 END ATOM
M  V30 BEGIN BOND
M  V30 1 2 1 2
M  V30 2 1 2 3
M  V30 3 1 2 4
M  V30 4 2 3 5
M  V30 5 1 3 6
M  V30 6 1 4 7
M  V30 7 1 5 8
M  V30 8 2 6 9
M  V30 9 1 7 10
M  V30 10 2 8 11
M  V30 11 1 11 12
M  V30 12 1 12 13
M  V30 13 1 9 11
M  V30 END BOND
M  V30 END CTAB
M  END
>  <Molecule Name>
2,4-dimethoxyacetophenone

>  <Molecule Name 2>
2,4-dimethoxyacetophenone

>  <Database>
Essential Oil Database

>  <InChI>
InChI=1S/C10H12O3/c1-12-7-10(11)8-3-5-9(13-2)6-4-8/h3-6H,7H2,1-2H3

>  <InChI-Key>
CAORAKZMJBISBZ-UHFFFAOYSA-N

>  <Smiles>
COCC(c(cc1)ccc1OC)=O

>  <Molecular Formula>
C10H12O3

$$$$
(e,e)-alpha-farnesene
Actelion Java MolfileCreator 2.0

  0  0  0  0  0  0              0 V3000
M  V30 BEGIN CTAB
M  V30 COUNTS 15 14 0 0 0
M  V30 BEGIN ATOM
M  V30 1 C 0.0 0.0 0.0 0
M  V30 2 C -1.5314 0.0478 0.0 0
M  V30 3 C 1.4356 0.0478 0.0 0
M  V30 4 C -2.309 -1.1844 0.0 0
M  V30 5 C -2.309 1.3758 0.0 0
M  V30 6 C -3.8404 -1.1365 0.0 0
M  V30 7 C -4.6181 -2.3688 0.0 0
M  V30 8 C -6.1495 -2.321 0.0 0
M  V30 9 C -6.9272 -3.5533 0.0 0
M  V30 10 C -6.9272 -0.993 0.0 0
M  V30 11 C -8.4586 -3.5054 0.0 0
M  V30 12 C -9.2363 -4.7377 0.0 0
M  V30 13 C -10.7677 -4.6899 0.0 0
M  V30 14 C -11.5453 -5.9222 0.0 0
M  V30 15 C -11.5453 -3.3619 0.0 0
M  V30 END ATOM
M  V30 BEGIN BOND
M  V30 1 2 1 2
M  V30 2 2 1 3
M  V30 3 1 2 4
M  V30 4 1 2 5
M  V30 5 1 4 6
M  V30 6 1 6 7
M  V30 7 2 7 8
M  V30 8 1 8 9
M  V30 9 1 8 10
M  V30 10 1 9 11
M  V30 11 1 11 12
M  V30 12 2 12 13
M  V30 13 1 13 14
M  V30 14 1 13 15
M  V30 END BOND
M  V30 END CTAB
M  END
>  <Molecule Name>
(e,e)-alpha-farnesene

>  <Molecule Name 2>
(e,e)-alpha-farnesene

>  <Database>
Essential Oil Database

>  <InChI>
InChI=1S/C15H24/c1-6-14(4)10-8-12-15(5)11-7-9-13(2)3/h9,12H,1,7-8,10-11H2,2-5H3/b15-12+

>  <InChI-Key>
ZZOQHOOPTLUGNV-NTCAYCPXSA-N

>  <Smiles>
CC(C)=CCC/C(\C)=C/CCC(C)=C=C

>  <Molecular Formula>
C15H24

$$$$
tetratriacontane
Actelion Java MolfileCreator 2.0

  0  0  0  0  0  0              0 V3000
M  V30 BEGIN CTAB
M  V30 COUNTS 34 33 0 0 0
M  V30 BEGIN ATOM
M  V30 1 C 0.0 0.0 0.0 0
M  V30 2 C 1.2639 0.7794 0.0 0
M  V30 3 C -1.3482 0.7794 0.0 0
M  V30 4 C 2.5279 0.0842 0.0 0
M  V30 5 C -2.6965 0.0842 0.0 0
M  V30 6 C 3.7919 0.8637 0.0 0
M  V30 7 C -4.0447 0.8637 0.0 0
M  V30 8 C 5.0559 0.1685 0.0 0
M  V30 9 C -5.393 0.1685 0.0 0
M  V30 10 C 6.3199 0.9479 0.0 0
M  V30 11 C -6.7413 0.9479 0.0 0
M  V30 12 C 7.5839 0.2527 0.0 0
M  V30 13 C -8.0895 0.2527 0.0 0
M  V30 14 C 8.8479 1.0322 0.0 0
M  V30 15 C -9.4378 1.0322 0.0 0
M  V30 16 C 10.1119 0.337 0.0 0
M  V30 17 C -10.786 0.337 0.0 0
M  V30 18 C 11.3759 1.1165 0.0 0
M  V30 19 C -12.1343 1.1165 0.0 0
M  V30 20 C 12.6399 0.4213 0.0 0
M  V30 21 C -13.4826 0.4213 0.0 0
M  V30 22 C 13.9039 1.2007 0.0 0
M  V30 23 C -14.8308 1.2007 0.0 0
M  V30 24 C 15.1679 0.5055 0.0 0
M  V30 25 C -16.1791 0.5055 0.0 0
M  V30 26 C 16.4319 1.285 0.0 0
M  V30 27 C -17.5274 1.285 0.0 0
M  V30 28 C 17.6959 0.5898 0.0 0
M  V30 29 C -18.8756 0.5898 0.0 0
M  V30 30 C 18.9599 1.3693 0.0 0
M  V30 31 C -20.2239 1.3693 0.0 0
M  V30 32 C 20.2239 0.6741 0.0 0
M  V30 33 C -21.5721 0.6741 0.0 0
M  V30 34 C 21.4879 1.4535 0.0 0
M  V30 END ATOM
M  V30 BEGIN BOND
M  V30 1 1 1 2
M  V30 2 1 1 3
M  V30 3 1 2 4
M  V30 4 1 3 5
M  V30 5 1 4 6
M  V30 6 1 5 7
M  V30 7 1 6 8
M  V30 8 1 7 9
M  V30 9 1 8 10
M  V30 10 1 9 11
M  V30 11 1 10 12
M  V30 12 1 11 13
M  V30 13 1 12 14
M  V30 14 1 13 15
M  V30 15 1 14 16
M  V30 16 1 15 17
M  V30 17 1 16 18
M  V30 18 1 17 19
M  V30 19 1 18 20
M  V30 20 1 19 21
M  V30 21 1 20 22
M  V30 22 1 21 23
M  V30 23 1 22 24
M  V30 24 1 23 25
M  V30 25 1 24 26
M  V30 26 1 25 27
M  V30 27 1 26 28
M  V30 28 1 27 29
M  V30 29 1 28 30
M  V30 30 1 29 31
M  V30 31 1 30 32
M  V30 32 1 31 33
M  V30 33 1 32 34
M  V30 END BOND
M  V30 END CTAB
M  END
>  <Molecule Name>
tetratriacontane

>  <Molecule Name 2>
tetratriacontane

>  <Database>
Essential Oil Database

>  <InChI>
InChI=1S/C34H70/c1-3-5-7-9-11-13-15-17-19-21-23-25-27-29-31-33-34-32-30-28-26-24-22-20-18-16-14-12-10-8-6-4-2/h3-34H2,1-2H3

>  <InChI-Key>
GWVDBZWVFGFBCN-UHFFFAOYSA-N

>  <Smiles>
CCCCCCCCCCCCCCCCCCCCCCCCCCCCCCCCCC

>  <Molecular Formula>
C34H70

$$$$
trans-mentha-1,8-dien-6-ol
Actelion Java MolfileCreator 2.0

  0  0  0  0  0  0              0 V3000
M  V30 BEGIN CTAB
M  V30 COUNTS 11 11 0 0 0
M  V30 BEGIN ATOM
M  V30 1 O 0.0 0.0 0.0 0
M  V30 2 C -1.3388 -0.7116 0.0 0 CFG=2
M  V30 3 C -2.6776 0.0603 0.0 0
M  V30 4 C -1.387 -2.159 0.0 0
M  V30 5 C -4.0164 -0.6513 0.0 0
M  V30 6 C -2.7258 1.6041 0.0 0
M  V30 7 C -2.7258 -2.8826 0.0 0 CFG=1
M  V30 8 C -4.0647 -2.0986 0.0 0
M  V30 9 C -2.7741 -4.33 0.0 0
M  V30 10 C -1.5318 -5.0537 0.0 0
M  V30 11 C -4.1129 -5.0537 0.0 0
M  V30 END ATOM
M  V30 BEGIN BOND
M  V30 1 1 2 1 CFG=1
M  V30 2 1 2 3
M  V30 3 1 2 4
M  V30 4 2 3 5
M  V30 5 1 3 6
M  V30 6 1 4 7
M  V30 7 1 5 8
M  V30 8 1 7 9 CFG=3
M  V30 9 2 9 10
M  V30 10 1 9 11
M  V30 11 1 7 8
M  V30 END BOND
M  V30 BEGIN COLLECTION
M  V30 MDLV30/STERAC1 ATOMS=(2 2 7)
M  V30 END COLLECTION
M  V30 END CTAB
M  END
>  <Molecule Name>
trans-mentha-1,8-dien-6-ol

>  <Molecule Name 2>
trans-mentha-1,8-dien-6-ol

>  <Database>
Essential Oil Database

>  <InChI>
InChI=1S/C10H16O/c1-7(2)9-5-4-8(3)10(11)6-9/h4,9-11H,1,5-6H2,2-3H3/t9-,10+/m1/s1

>  <InChI-Key>
BAVONGHXFVOKBV-ZJUUUORDSA-N

>  <Smiles>
CC([C@@H](C1)CC=C(C)[C@H]1O)=C

>  <Molecular Formula>
C10H16O

$$$$
2-octanone
Actelion Java MolfileCreator 2.0

  0  0  0  0  0  0              0 V3000
M  V30 BEGIN CTAB
M  V30 COUNTS 9 8 0 0 0
M  V30 BEGIN ATOM
M  V30 1 O 0.0 0.0 0.0 0
M  V30 2 C -0.0467 -1.4731 0.0 0
M  V30 3 C 1.2275 -2.2096 0.0 0
M  V30 4 C -1.4146 -2.2096 0.0 0
M  V30 5 C 2.5019 -1.3795 0.0 0
M  V30 6 C 3.7763 -2.1161 0.0 0
M  V30 7 C 5.0506 -1.286 0.0 0
M  V30 8 C 6.325 -2.0109 0.0 0
M  V30 9 C 7.5994 -1.1808 0.0 0
M  V30 END ATOM
M  V30 BEGIN BOND
M  V30 1 2 1 2
M  V30 2 1 2 3
M  V30 3 1 2 4
M  V30 4 1 3 5
M  V30 5 1 5 6
M  V30 6 1 6 7
M  V30 7 1 7 8
M  V30 8 1 8 9
M  V30 END BOND
M  V30 END CTAB
M  END
>  <Molecule Name>
2-octanone

>  <Molecule Name 2>
2-octanone

>  <Database>
Essential Oil Database

>  <InChI>
InChI=1S/C8H16O/c1-3-4-5-6-7-8(2)9/h3-7H2,1-2H3

>  <InChI-Key>
ZPVFWPFBNIEHGJ-UHFFFAOYSA-N

>  <Smiles>
CCCCCCC(C)=O

>  <Molecular Formula>
C8H16O

$$$$
beta-curcumene
Actelion Java MolfileCreator 2.0

  0  0  0  0  0  0              0 V3000
M  V30 BEGIN CTAB
M  V30 COUNTS 15 15 0 0 0
M  V30 BEGIN ATOM
M  V30 1 C 0.0 0.0 0.0 0
M  V30 2 C 1.2441 -0.7126 0.0 0
M  V30 3 C -0.0483 1.5461 0.0 0 CFG=2
M  V30 4 C -1.3408 -0.7126 0.0 0
M  V30 5 C 1.1958 -2.1622 0.0 0
M  V30 6 C -1.3891 2.3313 0.0 0
M  V30 7 C 1.1958 2.3313 0.0 0
M  V30 8 C -1.3891 -2.1622 0.0 0
M  V30 9 C -0.1449 -2.8748 0.0 0
M  V30 10 C -1.4374 3.8774 0.0 0
M  V30 11 C -0.1932 -4.3244 0.0 0
M  V30 12 C -2.7782 4.6626 0.0 0
M  V30 13 C -2.8265 6.2087 0.0 0
M  V30 14 C -4.1673 6.9939 0.0 0
M  V30 15 C -1.5823 6.9939 0.0 0
M  V30 END ATOM
M  V30 BEGIN BOND
M  V30 1 2 1 2
M  V30 2 1 1 3
M  V30 3 1 1 4
M  V30 4 1 2 5
M  V30 5 1 3 6
M  V30 6 1 3 7 CFG=3
M  V30 7 1 4 8
M  V30 8 1 5 9
M  V30 9 1 6 10
M  V30 10 1 9 11
M  V30 11 1 10 12
M  V30 12 2 12 13
M  V30 13 1 13 14
M  V30 14 1 13 15
M  V30 15 2 8 9
M  V30 END BOND
M  V30 BEGIN COLLECTION
M  V30 MDLV30/STERAC1 ATOMS=(1 3)
M  V30 END COLLECTION
M  V30 END CTAB
M  END
>  <Molecule Name>
beta-curcumene

>  <Molecule Name 2>
beta-curcumene

>  <Database>
Essential Oil Database

>  <InChI>
InChI=1S/C15H24/c1-12(2)6-5-7-14(4)15-10-8-13(3)9-11-15/h6,8,11,14H,5,7,9-10H2,1-4H3/t14-/m0/s1

>  <InChI-Key>
JXZQZARENYGJMK-AWEZNQCLSA-N

>  <Smiles>
CC(CCC=C(C)C)C1=CCC(C)=CC1

>  <Molecular Formula>
C15H24

$$$$
beta-guaiene
Actelion Java MolfileCreator 2.0

  0  0  0  0  0  0              0 V3000
M  V30 BEGIN CTAB
M  V30 COUNTS 15 16 0 0 0
M  V30 BEGIN ATOM
M  V30 1 C 0.0 0.0 0.0 0
M  V30 2 C 0.8829 1.2126 0.0 0
M  V30 3 C -1.5069 0.3767 0.0 0
M  V30 4 C 0.6004 -1.295 0.0 0
M  V30 5 C 2.3192 1.036 0.0 0
M  V30 6 C 0.2943 2.6489 0.0 0
M  V30 7 C -2.7195 -0.5062 0.0 0
M  V30 8 C -0.0941 -2.59 0.0 0
M  V30 9 C -2.7666 -1.9543 0.0 0
M  V30 10 C -4.1911 0.0 0.0 0 CFG=2
M  V30 11 C -1.6011 -2.8725 0.0 0 CFG=1
M  V30 12 C -4.2382 -2.3663 0.0 0
M  V30 13 C -5.1212 -1.1655 0.0 0
M  V30 14 C -4.6973 1.4716 0.0 0
M  V30 15 C -1.9778 -4.2853 0.0 0
M  V30 END ATOM
M  V30 BEGIN BOND
M  V30 1 2 1 2
M  V30 2 1 1 3
M  V30 3 1 1 4
M  V30 4 1 2 5
M  V30 5 1 2 6
M  V30 6 1 3 7
M  V30 7 1 4 8
M  V30 8 2 7 9
M  V30 9 1 7 10
M  V30 10 1 8 11
M  V30 11 1 9 12
M  V30 12 1 10 13
M  V30 13 1 10 14 CFG=3
M  V30 14 1 11 15 CFG=3
M  V30 15 1 9 11
M  V30 16 1 12 13
M  V30 END BOND
M  V30 BEGIN COLLECTION
M  V30 MDLV30/STEABS ATOMS=(2 10 11)
M  V30 END COLLECTION
M  V30 END CTAB
M  END
>  <Molecule Name>
beta-guaiene

>  <Molecule Name 2>
beta-guaiene

>  <Database>
Essential Oil Database

>  <InChI>
InChI=1S/C15H24/c1-10(2)13-7-5-11(3)14-8-6-12(4)15(14)9-13/h11-12H,5-9H2,1-4H3/t11-,12-/m0/s1

>  <InChI-Key>
GIBQERSGRNPMEH-RYUDHWBXSA-N

>  <Smiles>
C[C@@H](CC1)C(C2)=C1[C@@H](C)CCC2=C(C)C

>  <Molecular Formula>
C15H24

$$$$
viridiflorene
Actelion Java MolfileCreator 2.0

  0  0  0  0  0  0              0 V3000
M  V30 BEGIN CTAB
M  V30 COUNTS 15 17 0 0 0
M  V30 BEGIN ATOM
M  V30 1 C 0.0 0.0 0.0 0
M  V30 2 C -0.5378 -1.3983 0.0 0
M  V30 3 C 1.3983 0.5617 0.0 0
M  V30 4 C -1.1473 1.1234 0.0 0
M  V30 5 C 0.2509 -2.6412 0.0 0 CFG=1
M  V30 6 C -2.0676 -1.7329 0.0 0
M  V30 7 C 2.6532 -0.2031 0.0 0
M  V30 8 C -0.7768 -3.7766 0.0 0 CFG=1
M  V30 9 C 1.7329 -2.7488 0.0 0 CFG=1
M  V30 10 C -2.211 -3.2149 0.0 0
M  V30 11 C 2.7847 -1.6732 0.0 0 CFG=2
M  V30 12 C -0.4422 -5.2108 0.0 0
M  V30 13 C 3.1671 -3.0834 0.0 0
M  V30 14 C 3.3942 -4.5415 0.0 0
M  V30 15 C 4.6252 -3.2866 0.0 0
M  V30 END ATOM
M  V30 BEGIN BOND
M  V30 1 2 1 2
M  V30 2 1 1 3
M  V30 3 1 1 4
M  V30 4 1 5 2 CFG=3
M  V30 5 1 2 6
M  V30 6 1 3 7
M  V30 7 1 5 8
M  V30 8 1 5 9
M  V30 9 1 6 10
M  V30 10 1 11 7 CFG=1
M  V30 11 1 8 12 CFG=3
M  V30 12 1 9 13 CFG=1
M  V30 13 1 13 14
M  V30 14 1 13 15
M  V30 15 1 8 10
M  V30 16 1 9 11
M  V30 17 1 11 13
M  V30 END BOND
M  V30 BEGIN COLLECTION
M  V30 MDLV30/STEABS ATOMS=(4 5 8 9 11)
M  V30 END COLLECTION
M  V30 END CTAB
M  END
>  <Molecule Name>
viridiflorene

>  <Molecule Name 2>
viridiflorene

>  <Database>
Essential Oil Database

>  <InChI>
InChI=1S/C15H24/c1-9-6-8-12-14(15(12,3)4)13-10(2)5-7-11(9)13/h10,12-14H,5-8H2,1-4H3/t10-,12-,13-,14-/m1/s1

>  <InChI-Key>
WGTRJVCFDUCKCM-FMKGYKFTSA-N

>  <Smiles>
C[C@H](CC1)[C@@H]2C1=C(C)CC[C@H]1C(C)(C)[C@@H]21

>  <Molecular Formula>
C15H24

$$$$
(z,z)-alpha-farnesene
Actelion Java MolfileCreator 2.0

  0  0  0  0  0  0              0 V3000
M  V30 BEGIN CTAB
M  V30 COUNTS 15 14 0 0 0
M  V30 BEGIN ATOM
M  V30 1 C 0.0 0.0 0.0 0
M  V30 2 C 0.7055 1.3273 0.0 0
M  V30 3 C -0.7653 -1.2316 0.0 0
M  V30 4 C -0.0597 2.6547 0.0 0
M  V30 5 C 2.1405 1.3751 0.0 0
M  V30 6 C -1.5904 2.7025 0.0 0
M  V30 7 C -2.3557 4.0298 0.0 0
M  V30 8 C -3.8863 4.0777 0.0 0
M  V30 9 C -4.6517 2.846 0.0 0
M  V30 10 C -4.6517 5.405 0.0 0
M  V30 11 C -6.1823 2.8938 0.0 0
M  V30 12 C -6.9596 1.6621 0.0 0
M  V30 13 C -8.4902 1.71 0.0 0
M  V30 14 C -9.2556 0.4783 0.0 0
M  V30 15 C -9.2556 3.0373 0.0 0
M  V30 END ATOM
M  V30 BEGIN BOND
M  V30 1 2 1 2
M  V30 2 2 1 3
M  V30 3 1 2 4
M  V30 4 1 2 5
M  V30 5 1 4 6
M  V30 6 1 6 7
M  V30 7 2 7 8
M  V30 8 1 8 9
M  V30 9 1 8 10
M  V30 10 1 9 11
M  V30 11 1 11 12
M  V30 12 2 12 13
M  V30 13 1 13 14
M  V30 14 1 13 15
M  V30 END BOND
M  V30 END CTAB
M  END
>  <Molecule Name>
(z,z)-alpha-farnesene

>  <Molecule Name 2>
(z,z)-alpha-farnesene

>  <Database>
Essential Oil Database

>  <InChI>
InChI=1S/C15H24/c1-6-14(4)10-8-12-15(5)11-7-9-13(2)3/h9,12H,1,7-8,10-11H2,2-5H3/b15-12-

>  <InChI-Key>
ZZOQHOOPTLUGNV-QINSGFPZSA-N

>  <Smiles>
CC(C)=CCC/C(\C)=C\CCC(C)=C=C

>  <Molecular Formula>
C15H24

$$$$
(e,e)-farnesyl acetate
Actelion Java MolfileCreator 2.0

  0  0  0  0  0  0              0 V3000
M  V30 BEGIN CTAB
M  V30 COUNTS 19 18 0 0 0
M  V30 BEGIN ATOM
M  V30 1 O 0.0 0.0 0.0 0
M  V30 2 C -1.5271 0.0477 0.0 0
M  V30 3 O -2.3026 -1.1811 0.0 0
M  V30 4 C -2.3026 1.372 0.0 0
M  V30 5 C -3.8298 -1.1334 0.0 0
M  V30 6 C -4.5934 -2.3623 0.0 0
M  V30 7 C -6.1206 -2.3146 0.0 0
M  V30 8 C -6.8961 -3.5435 0.0 0
M  V30 9 C -6.8961 -0.9902 0.0 0
M  V30 10 C -8.4233 -3.4958 0.0 0
M  V30 11 C -9.1988 -4.7247 0.0 0
M  V30 12 C -10.726 -4.6769 0.0 0
M  V30 13 C -11.5015 -5.9058 0.0 0
M  V30 14 C -11.5015 -3.3526 0.0 0
M  V30 15 C -13.0287 -5.8581 0.0 0
M  V30 16 C -13.8042 -7.087 0.0 0
M  V30 17 C -15.3314 -7.0393 0.0 0
M  V30 18 C -16.1069 -8.2682 0.0 0
M  V30 19 C -16.1069 -5.7149 0.0 0
M  V30 END ATOM
M  V30 BEGIN BOND
M  V30 1 2 1 2
M  V30 2 1 2 3
M  V30 3 1 2 4
M  V30 4 1 3 5
M  V30 5 1 5 6
M  V30 6 2 6 7
M  V30 7 1 7 8
M  V30 8 1 7 9
M  V30 9 1 8 10
M  V30 10 1 10 11
M  V30 11 2 11 12
M  V30 12 1 12 13
M  V30 13 1 12 14
M  V30 14 1 13 15
M  V30 15 1 15 16
M  V30 16 2 16 17
M  V30 17 1 17 18
M  V30 18 1 17 19
M  V30 END BOND
M  V30 END CTAB
M  END
>  <Molecule Name>
(e,e)-farnesyl acetate

>  <Molecule Name 2>
(e,e)-farnesyl acetate

>  <Database>
Essential Oil Database

>  <InChI>
InChI=1S/C17H28O2/c1-14(2)8-6-9-15(3)10-7-11-16(4)12-13-19-17(5)18/h8,10,12H,6-7,9,11,13H2,1-5H3/b15-10+,16-12+

>  <InChI-Key>
ZGIGZINMAOQWLX-NCZFFCEISA-N

>  <Smiles>
CC(C)=CCC/C(\C)=C/CC/C(\C)=C/COC(C)=O

>  <Molecular Formula>
C17H28O2

$$$$
alpha-santalene
Actelion Java MolfileCreator 2.0

  0  0  0  0  0  0              0 V3000
M  V30 BEGIN CTAB
M  V30 COUNTS 15 17 0 0 0
M  V30 BEGIN ATOM
M  V30 1 C 0.0 0.0 0.0 0
M  V30 2 C -0.2087 1.5026 0.0 0
M  V30 3 C 1.2661 -0.5565 0.0 0
M  V30 4 C -1.2244 -0.8209 0.0 0
M  V30 5 C -1.5861 2.1705 0.0 0
M  V30 6 C -2.8105 1.3496 0.0 0
M  V30 7 C -4.188 2.0174 0.0 0 CFG=1
M  V30 8 C -5.6768 2.4627 0.0 0 CFG=2
M  V30 9 C -3.5341 3.3114 0.0 0 CFG=1
M  V30 10 C -4.7445 0.7096 0.0 0
M  V30 11 C -5.7324 4.2437 0.0 0 CFG=1
M  V30 12 C -6.5812 3.4227 0.0 0 CFG=1
M  V30 13 C -6.5116 1.28 0.0 0
M  V30 14 C -4.2158 4.675 0.0 0
M  V30 15 C -4.9115 4.0349 0.0 0
M  V30 END ATOM
M  V30 BEGIN BOND
M  V30 1 2 1 2
M  V30 2 1 1 3
M  V30 3 1 1 4
M  V30 4 1 2 5
M  V30 5 1 5 6
M  V30 6 1 6 7
M  V30 7 1 7 8
M  V30 8 1 7 9
M  V30 9 1 7 10 CFG=3
M  V30 10 1 8 11
M  V30 11 1 8 12
M  V30 12 1 8 13 CFG=1
M  V30 13 1 9 14 CFG=1
M  V30 14 1 9 15
M  V30 15 1 11 12
M  V30 16 1 11 14 CFG=1
M  V30 17 1 12 15 CFG=3
M  V30 END BOND
M  V30 BEGIN COLLECTION
M  V30 MDLV30/STEABS ATOMS=(5 7 8 9 11 12)
M  V30 END COLLECTION
M  V30 END CTAB
M  END
>  <Molecule Name>
alpha-santalene

>  <Molecule Name 2>
alpha-santalene

>  <Database>
Essential Oil Database

>  <InChI>
InChI=1S/C15H24/c1-10(2)6-5-7-14(3)11-8-12-13(9-11)15(12,14)4/h6,11-13H,5,7-9H2,1-4H3/t11-,12-,13-,14-,15+/m1/s1

>  <InChI-Key>
KWFJIXPIFLVMPM-RYPNDVFKSA-N

>  <Smiles>
C[C@]12[C@](C)(CCC=C(C)C)[C@@H]3C[C@@H]1[C@H]2C3

>  <Molecular Formula>
C15H24

$$$$
citronellyl butyrate
Actelion Java MolfileCreator 2.0

  0  0  0  0  0  0              0 V3000
M  V30 BEGIN CTAB
M  V30 COUNTS 16 15 0 0 0
M  V30 BEGIN ATOM
M  V30 1 O 0.0 0.0 0.0 0
M  V30 2 C -0.0489 1.5674 0.0 0
M  V30 3 O 1.2122 2.3633 0.0 0
M  V30 4 C -1.4082 2.3633 0.0 0
M  V30 5 C 2.4735 1.6286 0.0 0
M  V30 6 C -2.7674 1.6286 0.0 0
M  V30 7 C 3.7348 2.4245 0.0 0
M  V30 8 C -4.1267 2.4245 0.0 0
M  V30 9 C 4.9961 1.6898 0.0 0 CFG=2
M  V30 10 C 6.2574 2.4858 0.0 0
M  V30 11 C 4.9471 0.2204 0.0 0
M  V30 12 C 7.5187 1.751 0.0 0
M  V30 13 C 8.7799 2.547 0.0 0
M  V30 14 C 10.0412 1.8123 0.0 0
M  V30 15 C 11.3025 2.6082 0.0 0
M  V30 16 C 9.9922 0.3428 0.0 0
M  V30 END ATOM
M  V30 BEGIN BOND
M  V30 1 2 1 2
M  V30 2 1 2 3
M  V30 3 1 2 4
M  V30 4 1 3 5
M  V30 5 1 4 6
M  V30 6 1 5 7
M  V30 7 1 6 8
M  V30 8 1 7 9
M  V30 9 1 9 10
M  V30 10 1 9 11 CFG=3
M  V30 11 1 10 12
M  V30 12 1 12 13
M  V30 13 2 13 14
M  V30 14 1 14 15
M  V30 15 1 14 16
M  V30 END BOND
M  V30 BEGIN COLLECTION
M  V30 MDLV30/STERAC1 ATOMS=(1 9)
M  V30 END COLLECTION
M  V30 END CTAB
M  END
>  <Molecule Name>
citronellyl butyrate

>  <Molecule Name 2>
citronellyl butyrate

>  <Database>
Essential Oil Database

>  <InChI>
InChI=1S/C14H26O2/c1-5-7-14(15)16-11-10-13(4)9-6-8-12(2)3/h8,13H,5-7,9-11H2,1-4H3/t13-/m0/s1

>  <InChI-Key>
XQPZQXTWYZAXAK-ZDUSSCGKSA-N

>  <Smiles>
CCCC(OCCC(C)CCC=C(C)C)=O

>  <Molecular Formula>
C14H26O2

$$$$
(e)-2-dodecanal
Actelion Java MolfileCreator 2.0

  0  0  0  0  0  0              0 V3000
M  V30 BEGIN CTAB
M  V30 COUNTS 13 12 0 0 0
M  V30 BEGIN ATOM
M  V30 1 O 0.0 0.0 0.0 0
M  V30 2 C -0.0468 -1.4766 0.0 0
M  V30 3 C 1.2305 -2.215 0.0 0
M  V30 4 C -1.418 -2.215 0.0 0
M  V30 5 C 2.5079 -1.3829 0.0 0
M  V30 6 C 3.7854 -2.0978 0.0 0
M  V30 7 C 5.0628 -1.2657 0.0 0
M  V30 8 C 6.3403 -1.9806 0.0 0
M  V30 9 C 7.6177 -1.1485 0.0 0
M  V30 10 C 8.8951 -1.8634 0.0 0
M  V30 11 C 10.1726 -1.0313 0.0 0
M  V30 12 C 11.45 -1.7696 0.0 0
M  V30 13 C 12.7274 -0.9375 0.0 0
M  V30 END ATOM
M  V30 BEGIN BOND
M  V30 1 2 1 2
M  V30 2 1 2 3
M  V30 3 1 2 4
M  V30 4 1 3 5
M  V30 5 1 5 6
M  V30 6 1 6 7
M  V30 7 1 7 8
M  V30 8 1 8 9
M  V30 9 1 9 10
M  V30 10 1 10 11
M  V30 11 1 11 12
M  V30 12 1 12 13
M  V30 END BOND
M  V30 END CTAB
M  END
>  <Molecule Name>
(e)-2-dodecanal

>  <Molecule Name 2>
(e)-2-dodecanal

>  <Database>
Essential Oil Database

>  <InChI>
InChI=1S/C12H24O/c1-3-4-5-6-7-8-9-10-11-12(2)13/h3-11H2,1-2H3

>  <InChI-Key>
LSKONYYRONEBKA-UHFFFAOYSA-N

>  <Smiles>
CCCCCCCCCCC(C)=O

>  <Molecular Formula>
C12H24O

$$$$
(e)-2-tetradecanal
Actelion Java MolfileCreator 2.0

  0  0  0  0  0  0              0 V3000
M  V30 BEGIN CTAB
M  V30 COUNTS 15 14 0 0 0
M  V30 BEGIN ATOM
M  V30 1 O 0.0 0.0 0.0 0
M  V30 2 C -0.0469 -1.4793 0.0 0
M  V30 3 C 1.2328 -2.219 0.0 0
M  V30 4 C -1.4206 -2.219 0.0 0
M  V30 5 C 2.5125 -1.3971 0.0 0
M  V30 6 C 3.7923 -2.1133 0.0 0
M  V30 7 C 5.072 -1.2915 0.0 0
M  V30 8 C 6.3518 -2.0077 0.0 0
M  V30 9 C 7.6316 -1.1858 0.0 0
M  V30 10 C 8.9113 -1.9255 0.0 0
M  V30 11 C 10.1911 -1.1036 0.0 0
M  V30 12 C 11.4709 -1.8433 0.0 0
M  V30 13 C 12.7506 -1.0214 0.0 0
M  V30 14 C 14.0304 -1.7376 0.0 0
M  V30 15 C 15.3102 -0.9157 0.0 0
M  V30 END ATOM
M  V30 BEGIN BOND
M  V30 1 2 1 2
M  V30 2 1 2 3
M  V30 3 1 2 4
M  V30 4 1 3 5
M  V30 5 1 5 6
M  V30 6 1 6 7
M  V30 7 1 7 8
M  V30 8 1 8 9
M  V30 9 1 9 10
M  V30 10 1 10 11
M  V30 11 1 11 12
M  V30 12 1 12 13
M  V30 13 1 13 14
M  V30 14 1 14 15
M  V30 END BOND
M  V30 END CTAB
M  END
>  <Molecule Name>
(e)-2-tetradecanal

>  <Molecule Name 2>
(e)-2-tetradecanal

>  <Database>
Essential Oil Database

>  <InChI>
InChI=1S/C14H28O/c1-3-4-5-6-7-8-9-10-11-12-13-14(2)15/h3-13H2,1-2H3

>  <InChI-Key>
POQLVOYRGNFGRM-UHFFFAOYSA-N

>  <Smiles>
CCCCCCCCCCCCC(C)=O

>  <Molecular Formula>
C14H28O

$$$$
1-(methyl)-naphthalene
Actelion Java MolfileCreator 2.0

  0  0  0  0  0  0              0 V3000
M  V30 BEGIN CTAB
M  V30 COUNTS 11 12 0 0 0
M  V30 BEGIN ATOM
M  V30 1 C 0.0 0.0 0.0 0
M  V30 2 C -0.0481 1.5402 0.0 0
M  V30 3 C 1.2394 -0.7219 0.0 0
M  V30 4 C -1.3356 -0.7219 0.0 0
M  V30 5 C 1.1912 2.3224 0.0 0
M  V30 6 C -1.3838 2.3224 0.0 0
M  V30 7 C 2.4788 0.0601 0.0 0
M  V30 8 C 1.1912 -2.1659 0.0 0
M  V30 9 C -2.6713 0.0601 0.0 0
M  V30 10 C 2.4306 1.6004 0.0 0
M  V30 11 C -2.7194 1.6004 0.0 0
M  V30 END ATOM
M  V30 BEGIN BOND
M  V30 1 1 1 2
M  V30 2 1 1 3
M  V30 3 2 1 4
M  V30 4 1 2 5
M  V30 5 2 2 6
M  V30 6 2 3 7
M  V30 7 1 3 8
M  V30 8 1 4 9
M  V30 9 2 5 10
M  V30 10 1 6 11
M  V30 11 1 7 10
M  V30 12 2 9 11
M  V30 END BOND
M  V30 END CTAB
M  END
>  <Molecule Name>
1-(methyl)-naphthalene

>  <Molecule Name 2>
1-(methyl)-naphthalene

>  <Database>
Essential Oil Database

>  <InChI>
InChI=1S/C11H10/c1-9-5-4-7-10-6-2-3-8-11(9)10/h2-8H,1H3

>  <InChI-Key>
QPUYECUOLPXSFR-UHFFFAOYSA-N

>  <Smiles>
Cc1cccc2ccccc12

>  <Molecular Formula>
C11H10

$$$$
2-methylnaphthalene
Actelion Java MolfileCreator 2.0

  0  0  0  0  0  0              0 V3000
M  V30 BEGIN CTAB
M  V30 COUNTS 11 12 0 0 0
M  V30 BEGIN ATOM
M  V30 1 C 0.0 0.0 0.0 0
M  V30 2 C -0.0481 1.5416 0.0 0
M  V30 3 C 1.2405 -0.7226 0.0 0
M  V30 4 C -1.3369 -0.7226 0.0 0
M  V30 5 C 1.1923 2.3245 0.0 0
M  V30 6 C -1.385 2.3245 0.0 0
M  V30 7 C 2.481 0.0602 0.0 0
M  V30 8 C -2.6738 0.0602 0.0 0
M  V30 9 C 2.4329 1.6018 0.0 0
M  V30 10 C -2.7219 1.6018 0.0 0
M  V30 11 C 3.7216 -0.6503 0.0 0
M  V30 END ATOM
M  V30 BEGIN BOND
M  V30 1 1 1 2
M  V30 2 1 1 3
M  V30 3 2 1 4
M  V30 4 1 2 5
M  V30 5 2 2 6
M  V30 6 2 3 7
M  V30 7 1 4 8
M  V30 8 2 5 9
M  V30 9 1 6 10
M  V30 10 1 7 11
M  V30 11 1 7 9
M  V30 12 2 8 10
M  V30 END BOND
M  V30 END CTAB
M  END
>  <Molecule Name>
2-methylnaphthalene

>  <Molecule Name 2>
2-methylnaphthalene

>  <Database>
Essential Oil Database

>  <InChI>
InChI=1S/C11H10/c1-9-6-7-10-4-2-3-5-11(10)8-9/h2-8H,1H3

>  <InChI-Key>
QIMMUPPBPVKWKM-UHFFFAOYSA-N

>  <Smiles>
Cc1cc2ccccc2cc1

>  <Molecular Formula>
C11H10

$$$$
methyl hexadecanoate
Actelion Java MolfileCreator 2.0

  0  0  0  0  0  0              0 V3000
M  V30 BEGIN CTAB
M  V30 COUNTS 19 18 0 0 0
M  V30 BEGIN ATOM
M  V30 1 O 0.0 0.0 0.0 0
M  V30 2 C -0.0453 -1.4272 0.0 0
M  V30 3 O 1.1893 -2.1068 0.0 0
M  V30 4 C -1.3706 -2.1068 0.0 0
M  V30 5 C 2.424 -1.3139 0.0 0
M  V30 6 C -2.6959 -1.3139 0.0 0
M  V30 7 C -4.0212 -1.9822 0.0 0
M  V30 8 C -5.3465 -1.1893 0.0 0
M  V30 9 C -6.6718 -1.8576 0.0 0
M  V30 10 C -7.9971 -1.0647 0.0 0
M  V30 11 C -9.3224 -1.733 0.0 0
M  V30 12 C -10.6477 -0.9401 0.0 0
M  V30 13 C -11.973 -1.6084 0.0 0
M  V30 14 C -13.2983 -0.8155 0.0 0
M  V30 15 C -14.6236 -1.4952 0.0 0
M  V30 16 C -15.9489 -0.7022 0.0 0
M  V30 17 C -17.2742 -1.3706 0.0 0
M  V30 18 C -18.5996 -0.5776 0.0 0
M  V30 19 C -19.9249 -1.246 0.0 0
M  V30 END ATOM
M  V30 BEGIN BOND
M  V30 1 2 1 2
M  V30 2 1 2 3
M  V30 3 1 2 4
M  V30 4 1 3 5
M  V30 5 1 4 6
M  V30 6 1 6 7
M  V30 7 1 7 8
M  V30 8 1 8 9
M  V30 9 1 9 10
M  V30 10 1 10 11
M  V30 11 1 11 12
M  V30 12 1 12 13
M  V30 13 1 13 14
M  V30 14 1 14 15
M  V30 15 1 15 16
M  V30 16 1 16 17
M  V30 17 1 17 18
M  V30 18 1 18 19
M  V30 END BOND
M  V30 END CTAB
M  END
>  <Molecule Name>
methyl hexadecanoate

>  <Molecule Name 2>
methyl hexadecanoate

>  <Database>
Essential Oil Database

>  <InChI>
InChI=1S/C17H34O2/c1-3-4-5-6-7-8-9-10-11-12-13-14-15-16-17(18)19-2/h3-16H2,1-2H3

>  <InChI-Key>
FLIACVVOZYBSBS-UHFFFAOYSA-N

>  <Smiles>
CCCCCCCCCCCCCCCC(OC)=O

>  <Molecular Formula>
C17H34O2

$$$$
methyl linoleate
Actelion Java MolfileCreator 2.0

  0  0  0  0  0  0              0 V3000
M  V30 BEGIN CTAB
M  V30 COUNTS 21 20 0 0 0
M  V30 BEGIN ATOM
M  V30 1 O 0.0 0.0 0.0 0
M  V30 2 C -0.54 -1.3501 0.0 0
M  V30 3 O 0.3756 -2.4184 0.0 0
M  V30 4 C -2.0428 -1.5849 0.0 0
M  V30 5 C 1.7845 -2.0897 0.0 0
M  V30 6 C -3.0524 -0.4226 0.0 0
M  V30 7 C -4.5552 -0.6574 0.0 0
M  V30 8 C -5.5648 0.5048 0.0 0
M  V30 9 C -7.0676 0.27 0.0 0
M  V30 10 C -7.6077 -1.0801 0.0 0
M  V30 11 C -6.6919 -2.1484 0.0 0
M  V30 12 C -7.232 -3.4986 0.0 0
M  V30 13 C -8.7347 -3.7334 0.0 0
M  V30 14 C -9.7444 -2.5711 0.0 0
M  V30 15 C -11.2471 -2.8059 0.0 0
M  V30 16 C -12.2568 -1.6436 0.0 0
M  V30 17 C -11.8107 -0.1995 0.0 0
M  V30 18 C -12.8203 0.9627 0.0 0
M  V30 19 C -12.3742 2.4067 0.0 0
M  V30 20 C -13.3839 3.569 0.0 0
M  V30 21 C -12.9377 5.013 0.0 0
M  V30 END ATOM
M  V30 BEGIN BOND
M  V30 1 2 1 2
M  V30 2 1 2 3
M  V30 3 1 2 4
M  V30 4 1 3 5
M  V30 5 1 4 6
M  V30 6 1 6 7
M  V30 7 1 7 8
M  V30 8 1 8 9
M  V30 9 1 9 10
M  V30 10 1 10 11
M  V30 11 1 11 12
M  V30 12 2 12 13
M  V30 13 1 13 14
M  V30 14 1 14 15
M  V30 15 2 15 16
M  V30 16 1 16 17
M  V30 17 1 17 18
M  V30 18 1 18 19
M  V30 19 1 19 20
M  V30 20 1 20 21
M  V30 END BOND
M  V30 END CTAB
M  END
>  <Molecule Name>
methyl linoleate

>  <Molecule Name 2>
methyl linoleate

>  <Database>
Essential Oil Database

>  <InChI>
InChI=1S/C19H34O2/c1-3-4-5-6-7-8-9-10-11-12-13-14-15-16-17-18-19(20)21-2/h7-8,10-11H,3-6,9,12-18H2,1-2H3/b8-7-,11-10-

>  <InChI-Key>
WTTJVINHCBCLGX-NQLNTKRDSA-N

>  <Smiles>
CCCCC/C=C\C/C=C\CCCCCCCC(OC)=O

>  <Molecular Formula>
C19H34O2

$$$$
methyl octadecanoate
Actelion Java MolfileCreator 2.0

  0  0  0  0  0  0              0 V3000
M  V30 BEGIN CTAB
M  V30 COUNTS 21 20 0 0 0
M  V30 BEGIN ATOM
M  V30 1 O 0.0 0.0 0.0 0
M  V30 2 C -0.0449 -1.4161 0.0 0
M  V30 3 O 1.1801 -2.1242 0.0 0
M  V30 4 C -1.3599 -2.1242 0.0 0
M  V30 5 C 2.4052 -1.3262 0.0 0
M  V30 6 C -2.675 -1.3262 0.0 0
M  V30 7 C -3.99 -2.0343 0.0 0
M  V30 8 C -5.3051 -1.2363 0.0 0
M  V30 9 C -6.6201 -1.9107 0.0 0
M  V30 10 C -7.9351 -1.1127 0.0 0
M  V30 11 C -9.2502 -1.8208 0.0 0
M  V30 12 C -10.5652 -1.0228 0.0 0
M  V30 13 C -11.8802 -1.7309 0.0 0
M  V30 14 C -13.1953 -0.9328 0.0 0
M  V30 15 C -14.5103 -1.6072 0.0 0
M  V30 16 C -15.8253 -0.8092 0.0 0
M  V30 17 C -17.1404 -1.5173 0.0 0
M  V30 18 C -18.4554 -0.7193 0.0 0
M  V30 19 C -19.7704 -1.4274 0.0 0
M  V30 20 C -21.0855 -0.6294 0.0 0
M  V30 21 C -22.4005 -1.315 0.0 0
M  V30 END ATOM
M  V30 BEGIN BOND
M  V30 1 2 1 2
M  V30 2 1 2 3
M  V30 3 1 2 4
M  V30 4 1 3 5
M  V30 5 1 4 6
M  V30 6 1 6 7
M  V30 7 1 7 8
M  V30 8 1 8 9
M  V30 9 1 9 10
M  V30 10 1 10 11
M  V30 11 1 11 12
M  V30 12 1 12 13
M  V30 13 1 13 14
M  V30 14 1 14 15
M  V30 15 1 15 16
M  V30 16 1 16 17
M  V30 17 1 17 18
M  V30 18 1 18 19
M  V30 19 1 19 20
M  V30 20 1 20 21
M  V30 END BOND
M  V30 END CTAB
M  END
>  <Molecule Name>
methyl octadecanoate

>  <Molecule Name 2>
methyl octadecanoate

>  <Database>
Essential Oil Database

>  <InChI>
InChI=1S/C19H38O2/c1-3-4-5-6-7-8-9-10-11-12-13-14-15-16-17-18-19(20)21-2/h3-18H2,1-2H3

>  <InChI-Key>
HPEUJPJOZXNMSJ-UHFFFAOYSA-N

>  <Smiles>
CCCCCCCCCCCCCCCCCC(OC)=O

>  <Molecular Formula>
C19H38O2

$$$$
methyl oleate
Actelion Java MolfileCreator 2.0

  0  0  0  0  0  0              0 V3000
M  V30 BEGIN CTAB
M  V30 COUNTS 21 20 0 0 0
M  V30 BEGIN ATOM
M  V30 1 O 0.0 0.0 0.0 0
M  V30 2 C -0.5395 -1.3488 0.0 0
M  V30 3 O 0.3753 -2.4161 0.0 0
M  V30 4 C -2.0408 -1.5834 0.0 0
M  V30 5 C 1.7828 -2.0877 0.0 0
M  V30 6 C -3.0495 -0.4222 0.0 0
M  V30 7 C -4.5508 -0.6568 0.0 0
M  V30 8 C -5.5595 0.5043 0.0 0
M  V30 9 C -7.0608 0.2697 0.0 0
M  V30 10 C -7.6004 -1.079 0.0 0
M  V30 11 C -6.6855 -2.1464 0.0 0
M  V30 12 C -7.225 -3.4952 0.0 0
M  V30 13 C -8.7263 -3.7298 0.0 0
M  V30 14 C -9.735 -2.5686 0.0 0
M  V30 15 C -11.2364 -2.8032 0.0 0
M  V30 16 C -12.2451 -1.642 0.0 0
M  V30 17 C -13.7464 -1.8766 0.0 0
M  V30 18 C -14.7551 -0.7154 0.0 0
M  V30 19 C -16.2564 -0.95 0.0 0
M  V30 20 C -17.2651 0.2111 0.0 0
M  V30 21 C -18.7664 -0.0234 0.0 0
M  V30 END ATOM
M  V30 BEGIN BOND
M  V30 1 2 1 2
M  V30 2 1 2 3
M  V30 3 1 2 4
M  V30 4 1 3 5
M  V30 5 1 4 6
M  V30 6 1 6 7
M  V30 7 1 7 8
M  V30 8 1 8 9
M  V30 9 1 9 10
M  V30 10 1 10 11
M  V30 11 1 11 12
M  V30 12 2 12 13
M  V30 13 1 13 14
M  V30 14 1 14 15
M  V30 15 1 15 16
M  V30 16 1 16 17
M  V30 17 1 17 18
M  V30 18 1 18 19
M  V30 19 1 19 20
M  V30 20 1 20 21
M  V30 END BOND
M  V30 END CTAB
M  END
>  <Molecule Name>
methyl oleate

>  <Molecule Name 2>
methyl oleate

>  <Database>
Essential Oil Database

>  <InChI>
InChI=1S/C19H36O2/c1-3-4-5-6-7-8-9-10-11-12-13-14-15-16-17-18-19(20)21-2/h10-11H,3-9,12-18H2,1-2H3/b11-10-

>  <InChI-Key>
QYDYPVFESGNLHU-KHPPLWFESA-N

>  <Smiles>
CCCCCCCC/C=C\CCCCCCCC(OC)=O

>  <Molecular Formula>
C19H36O2

$$$$
p-mentha-1,3,8-triene
Actelion Java MolfileCreator 2.0

  0  0  0  0  0  0              0 V3000
M  V30 BEGIN CTAB
M  V30 COUNTS 10 10 0 0 0
M  V30 BEGIN ATOM
M  V30 1 C 0.0 0.0 0.0 0
M  V30 2 C -0.048 -1.4406 0.0 0
M  V30 3 C -1.3325 0.7683 0.0 0
M  V30 4 C 1.2365 0.7683 0.0 0
M  V30 5 C 1.1885 -2.1609 0.0 0
M  V30 6 C -1.3806 -2.1609 0.0 0
M  V30 7 C -1.3806 2.305 0.0 0
M  V30 8 C 1.1885 2.305 0.0 0
M  V30 9 C -0.144 3.0853 0.0 0
M  V30 10 C -0.192 4.622 0.0 0
M  V30 END ATOM
M  V30 BEGIN BOND
M  V30 1 1 1 2
M  V30 2 2 1 3
M  V30 3 1 1 4
M  V30 4 2 2 5
M  V30 5 1 2 6
M  V30 6 1 3 7
M  V30 7 1 4 8
M  V30 8 2 7 9
M  V30 9 1 9 10
M  V30 10 1 8 9
M  V30 END BOND
M  V30 END CTAB
M  END
>  <Molecule Name>
p-mentha-1,3,8-triene

>  <Molecule Name 2>
p-mentha-1,3,8-triene

>  <Database>
Essential Oil Database

>  <InChI>
InChI=1S/C10H14/c1-8(2)10-6-4-9(3)5-7-10/h4,6H,1,5,7H2,2-3H3

>  <InChI-Key>
XNMPFDIYAMOYRM-UHFFFAOYSA-N

>  <Smiles>
CC(C1=CC=C(C)CC1)=C

>  <Molecular Formula>
C10H14

$$$$
thymol acetate
Actelion Java MolfileCreator 2.0

  0  0  0  0  0  0              0 V3000
M  V30 BEGIN CTAB
M  V30 COUNTS 14 14 0 0 0
M  V30 BEGIN ATOM
M  V30 1 O 0.0 0.0 0.0 0
M  V30 2 C 1.2743 -0.7299 0.0 0
M  V30 3 O 2.5486 0.0618 0.0 0
M  V30 4 C 1.2248 -2.2146 0.0 0
M  V30 5 C 3.823 -0.668 0.0 0
M  V30 6 C 5.0973 0.1237 0.0 0
M  V30 7 C 3.7735 -2.1527 0.0 0
M  V30 8 C 6.3716 -0.6062 0.0 0
M  V30 9 C 5.0478 1.7073 0.0 0
M  V30 10 C 5.0478 -2.8827 0.0 0
M  V30 11 C 6.3221 -2.0909 0.0 0
M  V30 12 C 3.6745 2.5115 0.0 0
M  V30 13 C 6.3221 2.5115 0.0 0
M  V30 14 C 4.9983 -4.3673 0.0 0
M  V30 END ATOM
M  V30 BEGIN BOND
M  V30 1 2 1 2
M  V30 2 1 2 3
M  V30 3 1 2 4
M  V30 4 1 3 5
M  V30 5 2 5 6
M  V30 6 1 5 7
M  V30 7 1 6 8
M  V30 8 1 6 9
M  V30 9 2 7 10
M  V30 10 2 8 11
M  V30 11 1 9 12
M  V30 12 1 9 13
M  V30 13 1 10 14
M  V30 14 1 10 11
M  V30 END BOND
M  V30 END CTAB
M  END
>  <Molecule Name>
thymol acetate

>  <Molecule Name 2>
thymol acetate

>  <Database>
Essential Oil Database

>  <InChI>
InChI=1S/C12H16O2/c1-8(2)11-6-5-9(3)7-12(11)14-10(4)13/h5-8H,1-4H3

>  <InChI-Key>
WFMIUXMJJBBOGJ-UHFFFAOYSA-N

>  <Smiles>
CC(C)c(ccc(C)c1)c1OC(C)=O

>  <Molecular Formula>
C12H16O2

$$$$
methyl (e)-isoeugenol
Actelion Java MolfileCreator 2.0

  0  0  0  0  0  0              0 V3000
M  V30 BEGIN CTAB
M  V30 COUNTS 13 13 0 0 0
M  V30 BEGIN ATOM
M  V30 1 O 0.0 0.0 0.0 0
M  V30 2 C -0.0468 -1.4745 0.0 0
M  V30 3 C -1.3692 0.8191 0.0 0
M  V30 4 C -1.416 -2.1649 0.0 0
M  V30 5 C 1.2287 -2.1649 0.0 0
M  V30 6 O -2.7852 -1.3458 0.0 0
M  V30 7 C -1.4628 -3.6395 0.0 0
M  V30 8 C 1.1819 -3.6395 0.0 0
M  V30 9 C -4.1544 -2.0362 0.0 0
M  V30 10 C -0.1872 -4.3299 0.0 0
M  V30 11 C 2.4575 -4.3299 0.0 0
M  V30 12 C 2.4107 -5.8045 0.0 0
M  V30 13 C 3.6863 -6.5066 0.0 0
M  V30 END ATOM
M  V30 BEGIN BOND
M  V30 1 1 1 2
M  V30 2 1 1 3
M  V30 3 2 2 4
M  V30 4 1 2 5
M  V30 5 1 4 6
M  V30 6 1 4 7
M  V30 7 2 5 8
M  V30 8 1 6 9
M  V30 9 2 7 10
M  V30 10 1 8 11
M  V30 11 2 11 12
M  V30 12 1 12 13
M  V30 13 1 8 10
M  V30 END BOND
M  V30 END CTAB
M  END
>  <Molecule Name>
methyl (e)-isoeugenol

>  <Molecule Name 2>
methyl (e)-isoeugenol

>  <Database>
Essential Oil Database

>  <InChI>
InChI=1S/C11H14O2/c1-4-5-9-6-7-10(12-2)11(8-9)13-3/h4-8H,1-3H3/b5-4+

>  <InChI-Key>
NNWHUJCUHAELCL-SNAWJCMRSA-N

>  <Smiles>
C/C=C/c(cc1)cc(OC)c1OC

>  <Molecular Formula>
C11H14O2

$$$$
3-methyl-1-octyn-3-ol
Actelion Java MolfileCreator 2.0

  0  0  0  0  0  0              0 V3000
M  V30 BEGIN CTAB
M  V30 COUNTS 10 9 0 0 0
M  V30 BEGIN ATOM
M  V30 1 O 0.0 0.0 0.0 0
M  V30 2 C -1.5373 0.048 0.0 0 CFG=2
M  V30 3 C -1.5853 -1.3931 0.0 0
M  V30 4 C -1.5853 1.5853 0.0 0
M  V30 5 C -3.0746 0.096 0.0 0
M  V30 6 C -1.6334 -2.8344 0.0 0
M  V30 7 C -0.3482 2.366 0.0 0
M  V30 8 C -0.3963 3.9033 0.0 0
M  V30 9 C 0.8407 4.684 0.0 0
M  V30 10 C 0.7926 6.2213 0.0 0
M  V30 END ATOM
M  V30 BEGIN BOND
M  V30 1 1 1 2
M  V30 2 1 2 3 CFG=3
M  V30 3 1 2 4
M  V30 4 1 2 5
M  V30 5 3 3 6
M  V30 6 1 4 7
M  V30 7 1 7 8
M  V30 8 1 8 9
M  V30 9 1 9 10
M  V30 END BOND
M  V30 BEGIN COLLECTION
M  V30 MDLV30/STERAC1 ATOMS=(1 2)
M  V30 END COLLECTION
M  V30 END CTAB
M  END
>  <Molecule Name>
3-methyl-1-octyn-3-ol

>  <Molecule Name 2>
3-methyl-1-octyn-3-ol

>  <Database>
Essential Oil Database

>  <InChI>
InChI=1S/C9H16O/c1-4-6-7-8-9(3,10)5-2/h2,10H,4,6-8H2,1,3H3/t9-/m1/s1

>  <InChI-Key>
ZBDMJPAJZFSKPR-SECBINFHSA-N

>  <Smiles>
CCCCCC(C)(C#C)O

>  <Molecular Formula>
C9H16O

$$$$
8,10-heptadecadiene-4,6-diyne-1,12-diol
Actelion Java MolfileCreator 2.0

  0  0  0  0  0  0              0 V3000
M  V30 BEGIN CTAB
M  V30 COUNTS 19 18 0 0 0
M  V30 BEGIN ATOM
M  V30 1 O 0.0 0.0 0.0 0
M  V30 2 C -0.0462 -1.4577 0.0 0 CFG=2
M  V30 3 C -1.3998 -2.1518 0.0 0
M  V30 4 C 1.2147 -2.1518 0.0 0
M  V30 5 C -2.7534 -1.342 0.0 0
M  V30 6 C 2.4758 -1.342 0.0 0
M  V30 7 C -4.107 -2.0361 0.0 0
M  V30 8 C 3.7368 -2.0361 0.0 0
M  V30 9 C -5.4607 -1.2263 0.0 0
M  V30 10 C 4.9979 -1.2263 0.0 0
M  V30 11 C -6.8143 -1.9205 0.0 0
M  V30 12 C 6.2589 -1.9205 0.0 0
M  V30 13 C -8.1679 -2.6146 0.0 0
M  V30 14 C -9.5215 -3.2972 0.0 0
M  V30 15 C -10.8751 -3.9914 0.0 0
M  V30 16 C -12.2287 -4.6739 0.0 0
M  V30 17 C -12.275 -6.1317 0.0 0
M  V30 18 C -13.6286 -6.8143 0.0 0
M  V30 19 O -13.6748 -8.272 0.0 0
M  V30 END ATOM
M  V30 BEGIN BOND
M  V30 1 1 2 1 CFG=1
M  V30 2 1 2 3
M  V30 3 1 2 4
M  V30 4 2 3 5 CFG=2
M  V30 5 1 4 6
M  V30 6 1 5 7
M  V30 7 1 6 8
M  V30 8 2 7 9 CFG=2
M  V30 9 1 8 10
M  V30 10 1 9 11
M  V30 11 1 10 12
M  V30 12 3 11 13
M  V30 13 1 13 14
M  V30 14 3 14 15
M  V30 15 1 15 16
M  V30 16 1 16 17
M  V30 17 1 17 18
M  V30 18 1 18 19
M  V30 END BOND
M  V30 BEGIN COLLECTION
M  V30 MDLV30/STERAC1 ATOMS=(1 2)
M  V30 END COLLECTION
M  V30 END CTAB
M  END
>  <Molecule Name>
8,10-heptadecadiene-4,6-diyne-1,12-diol

>  <Molecule Name 2>
8,10-heptadecadiene-4,6-diyne-1,12-diol

>  <Database>
Essential Oil Database

>  <InChI>
InChI=1S/C17H24O2/c1-2-3-11-14-17(19)15-12-9-7-5-4-6-8-10-13-16-18/h7,9,12,15,17-19H,2-3,10-11,13-14,16H2,1H3/t17-/m0/s1

>  <InChI-Key>
UYZBGAFJAALREV-KRWDZBQOSA-N

>  <Smiles>
CCCCCC(C=CC=CC#CC#CCCCO)O

>  <Molecular Formula>
C17H24O2

$$$$
p-menth-1-ene-9-carboxaldehyde
Actelion Java MolfileCreator 2.0

  0  0  0  0  0  0              0 V3000
M  V30 BEGIN CTAB
M  V30 COUNTS 12 12 0 0 0
M  V30 BEGIN ATOM
M  V30 1 O 0.0 0.0 0.0 0
M  V30 2 C -1.3105 0.7674 0.0 0
M  V30 3 C -1.3577 2.2786 0.0 0
M  V30 4 C -2.6682 3.046 0.0 0
M  V30 5 C -2.7154 4.5572 0.0 0
M  V30 6 C -3.9787 2.3376 0.0 0
M  V30 7 C -4.0259 5.3246 0.0 0
M  V30 8 C -1.4994 5.3246 0.0 0
M  V30 9 C -4.0731 6.8358 0.0 0
M  V30 10 C -1.5466 6.8358 0.0 0
M  V30 11 C -2.8571 7.6032 0.0 0
M  V30 12 C -2.9043 9.1144 0.0 0
M  V30 END ATOM
M  V30 BEGIN BOND
M  V30 1 2 1 2
M  V30 2 1 2 3
M  V30 3 1 3 4
M  V30 4 1 4 5
M  V30 5 1 4 6
M  V30 6 1 5 7
M  V30 7 1 5 8
M  V30 8 1 7 9
M  V30 9 1 8 10
M  V30 10 2 9 11
M  V30 11 1 11 12
M  V30 12 1 10 11
M  V30 END BOND
M  V30 END CTAB
M  END
>  <Molecule Name>
p-menth-1-ene-9-carboxaldehyde

>  <Molecule Name 2>
p-menth-1-ene-9-carboxaldehyde

>  <Database>
Essential Oil Database

>  <InChI>
InChI=1S/C11H18O/c1-9-3-5-11(6-4-9)10(2)7-8-12/h3,8,10-11H,4-7H2,1-2H3

>  <InChI-Key>
VJYFMQREUJXCQV-UHFFFAOYSA-N

>  <Smiles>
CC(CC=O)C1CC=C(C)CC1

>  <Molecular Formula>
C11H18O

$$$$
mentha-2,8-diene
Actelion Java MolfileCreator 2.0

  0  0  0  0  0  0              0 V3000
M  V30 BEGIN CTAB
M  V30 COUNTS 10 10 0 0 0
M  V30 BEGIN ATOM
M  V30 1 C 0.0 0.0 0.0 0
M  V30 2 C 1.2276 -0.7151 0.0 0
M  V30 3 C -0.0476 1.5256 0.0 0
M  V30 4 C -1.323 -0.7151 0.0 0
M  V30 5 C -1.3706 2.3003 0.0 0
M  V30 6 C 1.1799 2.3003 0.0 0
M  V30 7 C -1.4183 3.826 0.0 0
M  V30 8 C 1.1323 3.826 0.0 0
M  V30 9 C -0.1907 4.6007 0.0 0
M  V30 10 C -0.2383 6.1264 0.0 0
M  V30 END ATOM
M  V30 BEGIN BOND
M  V30 1 2 1 2
M  V30 2 1 1 3
M  V30 3 1 1 4
M  V30 4 1 3 5
M  V30 5 1 3 6
M  V30 6 2 5 7
M  V30 7 1 6 8
M  V30 8 1 7 9
M  V30 9 1 9 10
M  V30 10 1 8 9
M  V30 END BOND
M  V30 END CTAB
M  END
>  <Molecule Name>
mentha-2,8-diene

>  <Molecule Name 2>
mentha-2,8-diene

>  <Database>
Essential Oil Database

>  <InChI>
InChI=1S/C10H16/c1-8(2)10-6-4-9(3)5-7-10/h4,6,9-10H,1,5,7H2,2-3H3

>  <InChI-Key>
TWCNAXRPQBLSNO-UHFFFAOYSA-N

>  <Smiles>
CC(CC1)C=CC1C(C)=C

>  <Molecular Formula>
C10H16

$$$$
(z)-3-hexenyl benzoate
Actelion Java MolfileCreator 2.0

  0  0  0  0  0  0              0 V3000
M  V30 BEGIN CTAB
M  V30 COUNTS 15 15 0 0 0
M  V30 BEGIN ATOM
M  V30 1 O 0.0 0.0 0.0 0
M  V30 2 C -0.048 1.5364 0.0 0
M  V30 3 O 1.1883 2.3046 0.0 0
M  V30 4 C -1.3803 2.3046 0.0 0
M  V30 5 C 2.4246 1.5844 0.0 0
M  V30 6 C -2.7127 1.5844 0.0 0
M  V30 7 C -1.4283 3.841 0.0 0
M  V30 8 C 3.6609 2.3526 0.0 0
M  V30 9 C -4.045 2.3526 0.0 0
M  V30 10 C -2.7607 4.6212 0.0 0
M  V30 11 C 4.8973 1.6324 0.0 0
M  V30 12 C -4.0931 3.889 0.0 0
M  V30 13 C 6.1336 2.4126 0.0 0
M  V30 14 C 6.0856 3.949 0.0 0
M  V30 15 C 7.3219 4.7292 0.0 0
M  V30 END ATOM
M  V30 BEGIN BOND
M  V30 1 2 1 2
M  V30 2 1 2 3
M  V30 3 1 2 4
M  V30 4 1 3 5
M  V30 5 2 4 6
M  V30 6 1 4 7
M  V30 7 1 5 8
M  V30 8 1 6 9
M  V30 9 2 7 10
M  V30 10 1 8 11
M  V30 11 2 9 12
M  V30 12 2 11 13
M  V30 13 1 13 14
M  V30 14 1 14 15
M  V30 15 1 10 12
M  V30 END BOND
M  V30 END CTAB
M  END
>  <Molecule Name>
(z)-3-hexenyl benzoate

>  <Molecule Name 2>
(z)-3-hexenyl benzoate

>  <Database>
Essential Oil Database

>  <InChI>
InChI=1S/C13H16O2/c1-2-3-4-8-11-15-13(14)12-9-6-5-7-10-12/h3-7,9-10H,2,8,11H2,1H3/b4-3-

>  <InChI-Key>
BCOXBEHFBZOJJZ-ARJAWSKDSA-N

>  <Smiles>
CC/C=C\CCOC(c1ccccc1)=O

>  <Molecular Formula>
C13H16O2

$$$$
ethyl-(2e)-pentenoate
Actelion Java MolfileCreator 2.0

  0  0  0  0  0  0              0 V3000
M  V30 BEGIN CTAB
M  V30 COUNTS 9 8 0 0 0
M  V30 BEGIN ATOM
M  V30 1 O 0.0 0.0 0.0 0
M  V30 2 C -1.5553 0.0486 0.0 0
M  V30 3 O -2.3452 1.3974 0.0 0 CHG=-1
M  V30 4 C -2.3452 -1.2029 0.0 0
M  V30 5 C -3.9005 -1.1543 0.0 0
M  V30 6 C -4.6904 -2.4059 0.0 0
M  V30 7 C -3.9734 -3.6575 0.0 0
M  V30 8 C -4.7633 -4.9091 0.0 0
M  V30 9 C -4.0464 -6.1607 0.0 0
M  V30 END ATOM
M  V30 BEGIN BOND
M  V30 1 2 1 2
M  V30 2 1 2 3
M  V30 3 1 2 4
M  V30 4 2 4 5
M  V30 5 1 5 6
M  V30 6 1 6 7
M  V30 7 1 7 8
M  V30 8 1 8 9
M  V30 END BOND
M  V30 END CTAB
M  END
>  <Molecule Name>
ethyl-(2e)-pentenoate

>  <Molecule Name 2>
ethyl-(2e)-pentenoate

>  <Database>
Essential Oil Database

>  <InChI>
InChI=1S/C7H12O2/c1-2-3-4-5-6-7(8)9/h5-6H,2-4H2,1H3,(H,8,9)/p-1/b6-5+

>  <InChI-Key>
YURNCBVQZBJDAJ-AATRIKPKSA-M

>  <Smiles>
CCCC/C=C/C([O-])=O

>  <Molecular Formula>
C7H11O2

$$$$
propyl butyrate
Actelion Java MolfileCreator 2.0

  0  0  0  0  0  0              0 V3000
M  V30 BEGIN CTAB
M  V30 COUNTS 9 8 0 0 0
M  V30 BEGIN ATOM
M  V30 1 O 0.0 0.0 0.0 0
M  V30 2 C -0.0462 -1.4583 0.0 0
M  V30 3 O 1.2152 -2.1527 0.0 0
M  V30 4 C -1.4004 -2.1527 0.0 0
M  V30 5 C 2.4768 -1.331 0.0 0
M  V30 6 C -2.7545 -1.331 0.0 0
M  V30 7 C 3.7383 -2.0485 0.0 0
M  V30 8 C -4.1087 -2.0485 0.0 0
M  V30 9 C 4.9999 -1.2268 0.0 0
M  V30 END ATOM
M  V30 BEGIN BOND
M  V30 1 2 1 2
M  V30 2 1 2 3
M  V30 3 1 2 4
M  V30 4 1 3 5
M  V30 5 1 4 6
M  V30 6 1 5 7
M  V30 7 1 6 8
M  V30 8 1 7 9
M  V30 END BOND
M  V30 END CTAB
M  END
>  <Molecule Name>
propyl butyrate

>  <Molecule Name 2>
propyl butyrate

>  <Database>
Essential Oil Database

>  <InChI>
InChI=1S/C7H14O2/c1-3-5-7(8)9-6-4-2/h3-6H2,1-2H3

>  <InChI-Key>
HUAZGNHGCJGYNP-UHFFFAOYSA-N

>  <Smiles>
CCCC(OCCC)=O

>  <Molecular Formula>
C7H14O2

$$$$
1,4-cineole
Actelion Java MolfileCreator 2.0

  0  0  0  0  0  0              0 V3000
M  V30 BEGIN CTAB
M  V30 COUNTS 11 12 0 0 0
M  V30 BEGIN ATOM
M  V30 1 O 0.0 0.0 0.0 0
M  V30 2 C -0.4321 1.5363 0.0 0
M  V30 3 C -0.4321 -1.4403 0.0 0
M  V30 4 C -0.4801 3.0727 0.0 0
M  V30 5 C -1.7644 0.8281 0.0 0
M  V30 6 C 0.8041 0.8281 0.0 0
M  V30 7 C -1.7644 -0.6601 0.0 0
M  V30 8 C 0.8041 -0.6601 0.0 0
M  V30 9 C -0.4801 -2.8806 0.0 0
M  V30 10 C 0.7561 3.8529 0.0 0
M  V30 11 C -1.8124 3.8529 0.0 0
M  V30 END ATOM
M  V30 BEGIN BOND
M  V30 1 1 1 2
M  V30 2 1 1 3
M  V30 3 1 2 4
M  V30 4 1 2 5
M  V30 5 1 2 6
M  V30 6 1 3 7
M  V30 7 1 3 8
M  V30 8 1 3 9
M  V30 9 1 4 10
M  V30 10 1 4 11
M  V30 11 1 5 7
M  V30 12 1 6 8
M  V30 END BOND
M  V30 END CTAB
M  END
>  <Molecule Name>
1,4-cineole

>  <Molecule Name 2>
1,4-cineole

>  <Database>
Essential Oil Database

>  <InChI>
InChI=1S/C10H18O/c1-8(2)10-6-4-9(3,11-10)5-7-10/h8H,4-7H2,1-3H3

>  <InChI-Key>
RFFOTVCVTJUTAD-UHFFFAOYSA-N

>  <Smiles>
CC(C)C1(CC2)OC2(C)CC1

>  <Molecular Formula>
C10H18O

$$$$
thujopsene
Actelion Java MolfileCreator 2.0

  0  0  0  0  0  0              0 V3000
M  V30 BEGIN CTAB
M  V30 COUNTS 15 17 0 0 0
M  V30 BEGIN ATOM
M  V30 1 C 0.0 0.0 0.0 0
M  V30 2 C -0.049 1.5683 0.0 0
M  V30 3 C 1.262 -0.7229 0.0 0 CFG=1
M  V30 4 C -1.36 -0.7229 0.0 0
M  V30 5 C 1.213 2.3647 0.0 0
M  V30 6 C 2.524 0.0612 0.0 0 CFG=2
M  V30 7 C 2.524 -1.4458 0.0 0
M  V30 8 C 2.475 1.6418 0.0 0 CFG=1
M  V30 9 C 3.7861 -0.6616 0.0 0
M  V30 10 C 3.737 2.426 0.0 0
M  V30 11 C 2.426 3.2102 0.0 0
M  V30 12 C 5.0481 0.1347 0.0 0
M  V30 13 C 4.705 -1.7643 0.0 0
M  V30 14 C 2.7691 -1.7643 0.0 0
M  V30 15 C 4.9991 1.7031 0.0 0
M  V30 END ATOM
M  V30 BEGIN BOND
M  V30 1 2 1 2
M  V30 2 1 1 3
M  V30 3 1 1 4
M  V30 4 1 2 5
M  V30 5 1 3 6
M  V30 6 1 3 7 CFG=1
M  V30 7 1 5 8
M  V30 8 1 6 9
M  V30 9 1 8 10
M  V30 10 1 8 11 CFG=1
M  V30 11 1 9 12
M  V30 12 1 9 13
M  V30 13 1 9 14
M  V30 14 1 10 15
M  V30 15 1 6 7 CFG=1
M  V30 16 1 6 8
M  V30 17 1 12 15
M  V30 END BOND
M  V30 BEGIN COLLECTION
M  V30 MDLV30/STEABS ATOMS=(3 3 6 8)
M  V30 END COLLECTION
M  V30 END CTAB
M  END
>  <Molecule Name>
thujopsene

>  <Molecule Name 2>
thujopsene

>  <Database>
Essential Oil Database

>  <InChI>
InChI=1S/C15H24/c1-11-6-9-14(4)8-5-7-13(2,3)15(14)10-12(11)15/h6,12H,5,7-10H2,1-4H3/t12-,14-,15-/m0/s1

>  <InChI-Key>
WXQGPFZDVCRBME-QEJZJMRPSA-N

>  <Smiles>
CC(C)(CCC1)[C@@]23[C@]1(C)CC=C(C)[C@@H]2C3

>  <Molecular Formula>
C15H24

$$$$
2,4,5-trimethylbenzaldehyde
Actelion Java MolfileCreator 2.0

  0  0  0  0  0  0              0 V3000
M  V30 BEGIN CTAB
M  V30 COUNTS 11 11 0 0 0
M  V30 BEGIN ATOM
M  V30 1 O 0.0 0.0 0.0 0
M  V30 2 C 1.2858 -0.6959 0.0 0
M  V30 3 C 1.2386 -2.1823 0.0 0
M  V30 4 C 2.5244 -2.8783 0.0 0
M  V30 5 C -0.1415 -2.8783 0.0 0
M  V30 6 C 2.4772 -4.3646 0.0 0
M  V30 7 C 3.8102 -2.0525 0.0 0
M  V30 8 C -0.1887 -4.3646 0.0 0
M  V30 9 C 1.097 -5.0606 0.0 0
M  V30 10 C -1.5689 -5.0606 0.0 0
M  V30 11 C 1.0498 -6.547 0.0 0
M  V30 END ATOM
M  V30 BEGIN BOND
M  V30 1 2 1 2
M  V30 2 1 2 3
M  V30 3 2 3 4
M  V30 4 1 3 5
M  V30 5 1 4 6
M  V30 6 1 4 7
M  V30 7 2 5 8
M  V30 8 2 6 9
M  V30 9 1 8 10
M  V30 10 1 9 11
M  V30 11 1 8 9
M  V30 END BOND
M  V30 END CTAB
M  END
>  <Molecule Name>
2,4,5-trimethylbenzaldehyde

>  <Molecule Name 2>
2,4,5-trimethylbenzaldehyde

>  <Database>
Essential Oil Database

>  <InChI>
InChI=1S/C10H12O/c1-7-4-9(3)10(6-11)5-8(7)2/h4-6H,1-3H3

>  <InChI-Key>
LROJZZICACKNJL-UHFFFAOYSA-N

>  <Smiles>
Cc1cc(C)c(C=O)cc1C

>  <Molecular Formula>
C10H12O

$$$$
2,4,6-trimethylbenzaldehyde
Actelion Java MolfileCreator 2.0

  0  0  0  0  0  0              0 V3000
M  V30 BEGIN CTAB
M  V30 COUNTS 11 11 0 0 0
M  V30 BEGIN ATOM
M  V30 1 O 0.0 0.0 0.0 0
M  V30 2 C 1.2809 -0.6933 0.0 0
M  V30 3 C 1.2339 -2.174 0.0 0
M  V30 4 C 2.5148 -2.8674 0.0 0
M  V30 5 C -0.141 -2.8674 0.0 0
M  V30 6 C 2.4678 -4.3481 0.0 0
M  V30 7 C 3.7958 -2.0448 0.0 0
M  V30 8 C -0.188 -4.3481 0.0 0
M  V30 9 C -1.5159 -2.0448 0.0 0
M  V30 10 C 1.0929 -5.0415 0.0 0
M  V30 11 C 1.0459 -6.5222 0.0 0
M  V30 END ATOM
M  V30 BEGIN BOND
M  V30 1 2 1 2
M  V30 2 1 2 3
M  V30 3 2 3 4
M  V30 4 1 3 5
M  V30 5 1 4 6
M  V30 6 1 4 7
M  V30 7 2 5 8
M  V30 8 1 5 9
M  V30 9 2 6 10
M  V30 10 1 10 11
M  V30 11 1 8 10
M  V30 END BOND
M  V30 END CTAB
M  END
>  <Molecule Name>
2,4,6-trimethylbenzaldehyde

>  <Molecule Name 2>
2,4,6-trimethylbenzaldehyde

>  <Database>
Essential Oil Database

>  <InChI>
InChI=1S/C10H12O/c1-7-4-8(2)10(6-11)9(3)5-7/h4-6H,1-3H3

>  <InChI-Key>
HIKRJHFHGKZKRI-UHFFFAOYSA-N

>  <Smiles>
Cc1cc(C)c(C=O)c(C)c1

>  <Molecular Formula>
C10H12O

$$$$
2-octylfuran
Actelion Java MolfileCreator 2.0

  0  0  0  0  0  0              0 V3000
M  V30 BEGIN CTAB
M  V30 COUNTS 13 13 0 0 0
M  V30 BEGIN ATOM
M  V30 1 O 0.0 0.0 0.0 0
M  V30 2 C 0.1079 -1.4628 0.0 0
M  V30 3 C -1.5347 0.3717 0.0 0
M  V30 4 C -1.3309 -2.0383 0.0 0
M  V30 5 C 1.3789 -2.1942 0.0 0
M  V30 6 C -2.3381 -0.8992 0.0 0
M  V30 7 C 2.6499 -1.3909 0.0 0
M  V30 8 C 3.9209 -2.1223 0.0 0
M  V30 9 C 5.1919 -1.3189 0.0 0
M  V30 10 C 6.4629 -2.0503 0.0 0
M  V30 11 C 7.7339 -1.247 0.0 0
M  V30 12 C 9.0049 -1.9784 0.0 0
M  V30 13 C 10.2759 -1.175 0.0 0
M  V30 END ATOM
M  V30 BEGIN BOND
M  V30 1 1 1 2
M  V30 2 1 1 3
M  V30 3 2 2 4
M  V30 4 1 2 5
M  V30 5 2 3 6
M  V30 6 1 5 7
M  V30 7 1 7 8
M  V30 8 1 8 9
M  V30 9 1 9 10
M  V30 10 1 10 11
M  V30 11 1 11 12
M  V30 12 1 12 13
M  V30 13 1 4 6
M  V30 END BOND
M  V30 END CTAB
M  END
>  <Molecule Name>
2-octylfuran

>  <Molecule Name 2>
2-octylfuran

>  <Database>
Essential Oil Database

>  <InChI>
InChI=1S/C12H20O/c1-2-3-4-5-6-7-9-12-10-8-11-13-12/h8,10-11H,2-7,9H2,1H3

>  <InChI-Key>
RADIRWIUSSENFC-UHFFFAOYSA-N

>  <Smiles>
CCCCCCCCc1ccc[o]1

>  <Molecular Formula>
C12H20O

$$$$
3-dodecenal
Actelion Java MolfileCreator 2.0

  0  0  0  0  0  0              0 V3000
M  V30 BEGIN CTAB
M  V30 COUNTS 13 12 0 0 0
M  V30 BEGIN ATOM
M  V30 1 O 0.0 0.0 0.0 0
M  V30 2 C 1.284 0.8152 0.0 0
M  V30 3 C 2.5681 0.0815 0.0 0
M  V30 4 C 3.8522 0.8968 0.0 0
M  V30 5 C 5.1363 0.163 0.0 0
M  V30 6 C 6.4204 0.9783 0.0 0
M  V30 7 C 7.7045 0.2445 0.0 0
M  V30 8 C 8.9886 1.0598 0.0 0
M  V30 9 C 10.2727 0.3261 0.0 0
M  V30 10 C 11.5568 1.1414 0.0 0
M  V30 11 C 12.8408 0.4076 0.0 0
M  V30 12 C 14.1249 1.2229 0.0 0
M  V30 13 C 15.409 0.4891 0.0 0
M  V30 END ATOM
M  V30 BEGIN BOND
M  V30 1 2 1 2
M  V30 2 1 2 3
M  V30 3 1 3 4
M  V30 4 2 4 5 CFG=2
M  V30 5 1 5 6
M  V30 6 1 6 7
M  V30 7 1 7 8
M  V30 8 1 8 9
M  V30 9 1 9 10
M  V30 10 1 10 11
M  V30 11 1 11 12
M  V30 12 1 12 13
M  V30 END BOND
M  V30 END CTAB
M  END
>  <Molecule Name>
3-dodecenal

>  <Molecule Name 2>
3-dodecenal

>  <Database>
Essential Oil Database

>  <InChI>
InChI=1S/C12H22O/c1-2-3-4-5-6-7-8-9-10-11-12-13/h9-10,12H,2-8,11H2,1H3

>  <InChI-Key>
HBBONAOKVLYWBI-UHFFFAOYSA-N

>  <Smiles>
CCCCCCCCC=CCC=O

>  <Molecular Formula>
C12H22O

$$$$
cumene
Actelion Java MolfileCreator 2.0

  0  0  0  0  0  0              0 V3000
M  V30 BEGIN CTAB
M  V30 COUNTS 9 9 0 0 0
M  V30 BEGIN ATOM
M  V30 1 C 0.0 0.0 0.0 0
M  V30 2 C 1.2556 -0.7192 0.0 0
M  V30 3 C -1.3531 -0.7192 0.0 0
M  V30 4 C -0.0487 1.5603 0.0 0
M  V30 5 C 1.2068 -2.182 0.0 0
M  V30 6 C -1.4018 -2.182 0.0 0
M  V30 7 C -1.4018 2.3527 0.0 0
M  V30 8 C 1.2068 2.3527 0.0 0
M  V30 9 C -0.1462 -2.9012 0.0 0
M  V30 END ATOM
M  V30 BEGIN BOND
M  V30 1 2 1 2
M  V30 2 1 1 3
M  V30 3 1 1 4
M  V30 4 1 2 5
M  V30 5 2 3 6
M  V30 6 1 4 7
M  V30 7 1 4 8
M  V30 8 2 5 9
M  V30 9 1 6 9
M  V30 END BOND
M  V30 END CTAB
M  END
>  <Molecule Name>
cumene

>  <Molecule Name 2>
cumene

>  <Database>
Essential Oil Database

>  <InChI>
InChI=1S/C9H12/c1-8(2)9-6-4-3-5-7-9/h3-8H,1-2H3

>  <InChI-Key>
RWGFKTVRMDUZSP-UHFFFAOYSA-N

>  <Smiles>
CC(C)c1ccccc1

>  <Molecular Formula>
C9H12

$$$$
(e)-alpha-ionone
Actelion Java MolfileCreator 2.0

  0  0  0  0  0  0              0 V3000
M  V30 BEGIN CTAB
M  V30 COUNTS 14 14 0 0 0
M  V30 BEGIN ATOM
M  V30 1 O 0.0 0.0 0.0 0
M  V30 2 C -1.3307 0.7792 0.0 0
M  V30 3 C -2.6614 0.0719 0.0 0
M  V30 4 C -1.3786 2.3138 0.0 0
M  V30 5 C -2.7094 -1.3667 0.0 0
M  V30 6 C -4.0401 -2.074 0.0 0 CFG=1
M  V30 7 C -4.0881 -3.5126 0.0 0
M  V30 8 C -5.3708 -1.2947 0.0 0
M  V30 9 C -5.4188 -4.2199 0.0 0
M  V30 10 C -2.8532 -4.2199 0.0 0
M  V30 11 C -6.7016 -2.002 0.0 0
M  V30 12 C -6.1381 0.0599 0.0 0
M  V30 13 C -4.6995 0.0599 0.0 0
M  V30 14 C -6.7495 -3.4407 0.0 0
M  V30 END ATOM
M  V30 BEGIN BOND
M  V30 1 2 1 2
M  V30 2 1 2 3
M  V30 3 1 2 4
M  V30 4 2 3 5
M  V30 5 1 6 5 CFG=1
M  V30 6 1 6 7
M  V30 7 1 6 8
M  V30 8 2 7 9
M  V30 9 1 7 10
M  V30 10 1 8 11
M  V30 11 1 8 12
M  V30 12 1 8 13
M  V30 13 1 9 14
M  V30 14 1 11 14
M  V30 END BOND
M  V30 BEGIN COLLECTION
M  V30 MDLV30/STERAC1 ATOMS=(1 6)
M  V30 END COLLECTION
M  V30 END CTAB
M  END
>  <Molecule Name>
(e)-alpha-ionone

>  <Molecule Name 2>
(e)-alpha-ionone

>  <Database>
Essential Oil Database

>  <InChI>
InChI=1S/C13H20O/c1-10-6-5-9-13(3,4)12(10)8-7-11(2)14/h6-8,12H,5,9H2,1-4H3/b8-7+/t12-/m0/s1

>  <InChI-Key>
UZFLPKAIBPNNCA-GUOLPTJISA-N

>  <Smiles>
CC1(C)C(/C=C/C(C)=O)C(C)=CCC1

>  <Molecular Formula>
C13H20O

$$$$
furfuryl octanoate
Actelion Java MolfileCreator 2.0

  0  0  0  0  0  0              0 V3000
M  V30 BEGIN CTAB
M  V30 COUNTS 16 16 0 0 0
M  V30 BEGIN ATOM
M  V30 1 O 0.0 0.0 0.0 0
M  V30 2 C -0.0464 -1.4616 0.0 0
M  V30 3 O 1.218 -2.146 0.0 0
M  V30 4 C -1.4036 -2.146 0.0 0
M  V30 5 C 2.4824 -1.334 0.0 0
M  V30 6 C -2.7608 -1.334 0.0 0
M  V30 7 C 3.7468 -2.0184 0.0 0
M  V30 8 C -4.118 -2.0184 0.0 0
M  V30 9 O 3.8512 -3.4684 0.0 0
M  V30 10 C 5.0808 -1.3688 0.0 0
M  V30 11 C -5.4752 -1.2064 0.0 0
M  V30 12 C 5.278 -3.7236 0.0 0
M  V30 13 C 6.0552 -2.4476 0.0 0
M  V30 14 C -6.8324 -1.8908 0.0 0
M  V30 15 C -8.1896 -1.0788 0.0 0
M  V30 16 C -9.5468 -1.7632 0.0 0
M  V30 END ATOM
M  V30 BEGIN BOND
M  V30 1 2 1 2
M  V30 2 1 2 3
M  V30 3 1 2 4
M  V30 4 1 3 5
M  V30 5 1 4 6
M  V30 6 1 5 7
M  V30 7 1 6 8
M  V30 8 1 7 9
M  V30 9 2 7 10
M  V30 10 1 8 11
M  V30 11 1 9 12
M  V30 12 1 10 13
M  V30 13 1 11 14
M  V30 14 1 14 15
M  V30 15 1 15 16
M  V30 16 2 12 13
M  V30 END BOND
M  V30 END CTAB
M  END
>  <Molecule Name>
furfuryl octanoate

>  <Molecule Name 2>
furfuryl octanoate

>  <Database>
Essential Oil Database

>  <InChI>
InChI=1S/C13H20O3/c1-2-3-4-5-6-9-13(14)16-11-12-8-7-10-15-12/h7-8,10H,2-6,9,11H2,1H3

>  <InChI-Key>
JNIWCVWKECYDSV-UHFFFAOYSA-N

>  <Smiles>
CCCCCCCC(OCc1ccc[o]1)=O

>  <Molecular Formula>
C13H20O3

$$$$
mesitylene
Actelion Java MolfileCreator 2.0

  0  0  0  0  0  0              0 V3000
M  V30 BEGIN CTAB
M  V30 COUNTS 9 9 0 0 0
M  V30 BEGIN ATOM
M  V30 1 C 0.0 0.0 0.0 0
M  V30 2 C 1.2624 -0.7231 0.0 0
M  V30 3 C -1.3605 -0.7231 0.0 0
M  V30 4 C -0.049 1.5688 0.0 0
M  V30 5 C 1.2134 -2.1939 0.0 0
M  V30 6 C -1.4095 -2.1939 0.0 0
M  V30 7 C -0.147 -2.9171 0.0 0
M  V30 8 C 2.4758 -2.9171 0.0 0
M  V30 9 C -2.77 -2.9171 0.0 0
M  V30 END ATOM
M  V30 BEGIN BOND
M  V30 1 2 1 2
M  V30 2 1 1 3
M  V30 3 1 1 4
M  V30 4 1 2 5
M  V30 5 2 3 6
M  V30 6 2 5 7
M  V30 7 1 5 8
M  V30 8 1 6 9
M  V30 9 1 6 7
M  V30 END BOND
M  V30 END CTAB
M  END
>  <Molecule Name>
mesitylene

>  <Molecule Name 2>
mesitylene

>  <Database>
Essential Oil Database

>  <InChI>
InChI=1S/C9H12/c1-7-4-8(2)6-9(3)5-7/h4-6H,1-3H3

>  <InChI-Key>
AUHZEENZYGFFBQ-UHFFFAOYSA-N

>  <Smiles>
Cc1cc(C)cc(C)c1

>  <Molecular Formula>
C9H12

$$$$
3-methoxyacetophenone
Actelion Java MolfileCreator 2.0

  0  0  0  0  0  0              0 V3000
M  V30 BEGIN CTAB
M  V30 COUNTS 11 11 0 0 0
M  V30 BEGIN ATOM
M  V30 1 O 0.0 0.0 0.0 0
M  V30 2 C -1.3711 -0.6914 0.0 0
M  V30 3 C -1.4179 -2.1679 0.0 0
M  V30 4 C -2.7422 0.1054 0.0 0
M  V30 5 C -0.1406 -2.8593 0.0 0
M  V30 6 C -2.789 -2.8593 0.0 0
M  V30 7 C -0.1875 -4.3359 0.0 0
M  V30 8 C -2.8359 -4.3359 0.0 0
M  V30 9 O 1.0898 -5.0273 0.0 0
M  V30 10 C -1.5586 -5.0273 0.0 0
M  V30 11 C 2.3672 -4.207 0.0 0
M  V30 END ATOM
M  V30 BEGIN BOND
M  V30 1 2 1 2
M  V30 2 1 2 3
M  V30 3 1 2 4
M  V30 4 2 3 5
M  V30 5 1 3 6
M  V30 6 1 5 7
M  V30 7 2 6 8
M  V30 8 1 7 9
M  V30 9 2 7 10
M  V30 10 1 9 11
M  V30 11 1 8 10
M  V30 END BOND
M  V30 END CTAB
M  END
>  <Molecule Name>
3-methoxyacetophenone

>  <Molecule Name 2>
3-methoxyacetophenone

>  <Database>
Essential Oil Database

>  <InChI>
InChI=1S/C9H10O2/c1-7(10)8-4-3-5-9(6-8)11-2/h3-6H,1-2H3

>  <InChI-Key>
BAYUSCHCCGXLAY-UHFFFAOYSA-N

>  <Smiles>
CC(c1cc(OC)ccc1)=O

>  <Molecular Formula>
C9H10O2

$$$$
3-octanone
Actelion Java MolfileCreator 2.0

  0  0  0  0  0  0              0 V3000
M  V30 BEGIN CTAB
M  V30 COUNTS 9 8 0 0 0
M  V30 BEGIN ATOM
M  V30 1 O 0.0 0.0 0.0 0
M  V30 2 C -0.0486 1.5567 0.0 0
M  V30 3 C 1.204 2.3473 0.0 0
M  V30 4 C -1.3986 2.3473 0.0 0
M  V30 5 C 2.4567 1.6175 0.0 0
M  V30 6 C -2.7486 1.6175 0.0 0
M  V30 7 C 3.7094 2.4081 0.0 0
M  V30 8 C 4.9621 1.6783 0.0 0
M  V30 9 C 6.2149 2.4689 0.0 0
M  V30 END ATOM
M  V30 BEGIN BOND
M  V30 1 2 1 2
M  V30 2 1 2 3
M  V30 3 1 2 4
M  V30 4 1 3 5
M  V30 5 1 4 6
M  V30 6 1 5 7
M  V30 7 1 7 8
M  V30 8 1 8 9
M  V30 END BOND
M  V30 END CTAB
M  END
>  <Molecule Name>
3-octanone

>  <Molecule Name 2>
3-octanone

>  <Database>
Essential Oil Database

>  <InChI>
InChI=1S/C8H16O/c1-3-5-6-7-8(9)4-2/h3-7H2,1-2H3

>  <InChI-Key>
RHLVCLIPMVJYKS-UHFFFAOYSA-N

>  <Smiles>
CCCCCC(CC)=O

>  <Molecular Formula>
C8H16O

$$$$
(e,e)-farnesol
Actelion Java MolfileCreator 2.0

  0  0  0  0  0  0              0 V3000
M  V30 BEGIN CTAB
M  V30 COUNTS 16 15 0 0 0
M  V30 BEGIN ATOM
M  V30 1 O 0.0 0.0 0.0 0
M  V30 2 C 0.7085 -1.2369 0.0 0
M  V30 3 C -0.06 -2.4738 0.0 0
M  V30 4 C -1.5972 -2.4258 0.0 0
M  V30 5 C -2.3657 -3.6627 0.0 0
M  V30 6 C -2.3657 -1.0928 0.0 0
M  V30 7 C -3.9029 -3.6147 0.0 0
M  V30 8 C -4.6715 -4.8516 0.0 0
M  V30 9 C -6.2086 -4.8036 0.0 0
M  V30 10 C -6.9892 -6.0405 0.0 0
M  V30 11 C -6.9892 -3.4706 0.0 0
M  V30 12 C -8.5264 -5.9925 0.0 0
M  V30 13 C -9.307 -7.2294 0.0 0
M  V30 14 C -10.8441 -7.1814 0.0 0
M  V30 15 C -11.6247 -8.4183 0.0 0
M  V30 16 C -11.6247 -5.8484 0.0 0
M  V30 END ATOM
M  V30 BEGIN BOND
M  V30 1 1 1 2
M  V30 2 1 2 3
M  V30 3 2 3 4
M  V30 4 1 4 5
M  V30 5 1 4 6
M  V30 6 1 5 7
M  V30 7 1 7 8
M  V30 8 2 8 9
M  V30 9 1 9 10
M  V30 10 1 9 11
M  V30 11 1 10 12
M  V30 12 1 12 13
M  V30 13 2 13 14
M  V30 14 1 14 15
M  V30 15 1 14 16
M  V30 END BOND
M  V30 END CTAB
M  END
>  <Molecule Name>
(e,e)-farnesol

>  <Molecule Name 2>
(e,e)-farnesol

>  <Database>
Essential Oil Database

>  <InChI>
InChI=1S/C15H26O/c1-13(2)7-5-8-14(3)9-6-10-15(4)11-12-16/h7,9,11,16H,5-6,8,10,12H2,1-4H3/b14-9+,15-11+

>  <InChI-Key>
CRDAMVZIKSXKFV-YFVJMOTDSA-N

>  <Smiles>
CC(C)=CCC/C(\C)=C/CC/C(\C)=C/CO

>  <Molecular Formula>
C15H26O

$$$$
neryl isobutyrate
Actelion Java MolfileCreator 2.0

  0  0  0  0  0  0              0 V3000
M  V30 BEGIN CTAB
M  V30 COUNTS 16 15 0 0 0
M  V30 BEGIN ATOM
M  V30 1 O 0.0 0.0 0.0 0
M  V30 2 C -0.0489 -1.4685 0.0 0
M  V30 3 O 1.2115 -2.1905 0.0 0
M  V30 4 C -1.4073 -2.1905 0.0 0
M  V30 5 C 2.472 -1.4073 0.0 0
M  V30 6 C -2.7657 -1.4073 0.0 0
M  V30 7 C -1.4563 -3.6591 0.0 0
M  V30 8 C 3.7325 -2.1293 0.0 0
M  V30 9 C 4.993 -1.3339 0.0 0
M  V30 10 C 4.9441 0.2325 0.0 0
M  V30 11 C 6.2535 -2.0559 0.0 0
M  V30 12 C 6.2046 1.0157 0.0 0
M  V30 13 C 6.1556 2.5822 0.0 0
M  V30 14 C 7.4161 3.3654 0.0 0
M  V30 15 C 7.3672 4.9318 0.0 0
M  V30 16 C 8.6766 2.6433 0.0 0
M  V30 END ATOM
M  V30 BEGIN BOND
M  V30 1 2 1 2
M  V30 2 1 2 3
M  V30 3 1 2 4
M  V30 4 1 3 5
M  V30 5 1 4 6
M  V30 6 1 4 7
M  V30 7 1 5 8
M  V30 8 2 8 9
M  V30 9 1 9 10
M  V30 10 1 9 11
M  V30 11 1 10 12
M  V30 12 1 12 13
M  V30 13 2 13 14
M  V30 14 1 14 15
M  V30 15 1 14 16
M  V30 END BOND
M  V30 END CTAB
M  END
>  <Molecule Name>
neryl isobutyrate

>  <Molecule Name 2>
neryl isobutyrate

>  <Database>
Essential Oil Database

>  <InChI>
InChI=1S/C14H24O2/c1-11(2)7-6-8-13(5)9-10-16-14(15)12(3)4/h7,9,12H,6,8,10H2,1-5H3/b13-9-

>  <InChI-Key>
OGJYXQFXLSCKTP-LCYFTJDESA-N

>  <Smiles>
CC(C)C(OC/C=C(/C)\CCC=C(C)C)=O

>  <Molecular Formula>
C14H24O2

$$$$
o-tolualdehyde
Actelion Java MolfileCreator 2.0

  0  0  0  0  0  0              0 V3000
M  V30 BEGIN CTAB
M  V30 COUNTS 9 9 0 0 0
M  V30 BEGIN ATOM
M  V30 1 O 0.0 0.0 0.0 0
M  V30 2 C -0.0481 -1.443 0.0 0
M  V30 3 C -1.3828 -2.1525 0.0 0
M  V30 4 C -2.7176 -1.3708 0.0 0
M  V30 5 C -1.4309 -3.5955 0.0 0
M  V30 6 C -4.0524 -2.0803 0.0 0
M  V30 7 C -2.7657 0.1683 0.0 0
M  V30 8 C -2.7657 -4.305 0.0 0
M  V30 9 C -4.1005 -3.5233 0.0 0
M  V30 END ATOM
M  V30 BEGIN BOND
M  V30 1 2 1 2
M  V30 2 1 2 3
M  V30 3 2 3 4
M  V30 4 1 3 5
M  V30 5 1 4 6
M  V30 6 1 4 7
M  V30 7 2 5 8
M  V30 8 2 6 9
M  V30 9 1 8 9
M  V30 END BOND
M  V30 END CTAB
M  END
>  <Molecule Name>
o-tolualdehyde

>  <Molecule Name 2>
o-tolualdehyde

>  <Database>
Essential Oil Database

>  <InChI>
InChI=1S/C8H8O/c1-7-4-2-3-5-8(7)6-9/h2-6H,1H3

>  <InChI-Key>
BTFQKIATRPGRBS-UHFFFAOYSA-N

>  <Smiles>
Cc1c(C=O)cccc1

>  <Molecular Formula>
C8H8O

$$$$
tridecane
Actelion Java MolfileCreator 2.0

  0  0  0  0  0  0              0 V3000
M  V30 BEGIN CTAB
M  V30 COUNTS 13 12 0 0 0
M  V30 BEGIN ATOM
M  V30 1 C 0.0 0.0 0.0 0
M  V30 2 C -1.3478 -0.6949 0.0 0
M  V30 3 C 1.2636 -0.6949 0.0 0
M  V30 4 C -2.6956 0.0842 0.0 0
M  V30 5 C 2.5272 0.0842 0.0 0
M  V30 6 C -4.0435 -0.6107 0.0 0
M  V30 7 C 3.7908 -0.6107 0.0 0
M  V30 8 C -5.3913 0.1684 0.0 0
M  V30 9 C 5.0544 0.1684 0.0 0
M  V30 10 C -6.7392 -0.5265 0.0 0
M  V30 11 C 6.318 -0.5265 0.0 0
M  V30 12 C -8.087 0.2527 0.0 0
M  V30 13 C 7.5816 0.2527 0.0 0
M  V30 END ATOM
M  V30 BEGIN BOND
M  V30 1 1 1 2
M  V30 2 1 1 3
M  V30 3 1 2 4
M  V30 4 1 3 5
M  V30 5 1 4 6
M  V30 6 1 5 7
M  V30 7 1 6 8
M  V30 8 1 7 9
M  V30 9 1 8 10
M  V30 10 1 9 11
M  V30 11 1 10 12
M  V30 12 1 11 13
M  V30 END BOND
M  V30 END CTAB
M  END
>  <Molecule Name>
tridecane

>  <Molecule Name 2>
tridecane

>  <Database>
Essential Oil Database

>  <InChI>
InChI=1S/C13H28/c1-3-5-7-9-11-13-12-10-8-6-4-2/h3-13H2,1-2H3

>  <InChI-Key>
IIYFAKIEWZDVMP-UHFFFAOYSA-N

>  <Smiles>
CCCCCCCCCCCCC

>  <Molecular Formula>
C13H28

$$$$
2-butyl-octanol
Actelion Java MolfileCreator 2.0

  0  0  0  0  0  0              0 V3000
M  V30 BEGIN CTAB
M  V30 COUNTS 13 12 0 0 0
M  V30 BEGIN ATOM
M  V30 1 O 0.0 0.0 0.0 0
M  V30 2 C -1.336 -0.6965 0.0 0
M  V30 3 C -1.3816 -2.1353 0.0 0 CFG=2
M  V30 4 C -2.7176 -2.8547 0.0 0
M  V30 5 C -0.137 -2.8547 0.0 0
M  V30 6 C -4.0537 -2.0439 0.0 0
M  V30 7 C 1.1076 -2.0439 0.0 0
M  V30 8 C -5.3897 -2.7405 0.0 0
M  V30 9 C 2.3522 -2.7405 0.0 0
M  V30 10 C -6.7257 -1.9297 0.0 0
M  V30 11 C 3.5969 -1.9297 0.0 0
M  V30 12 C -8.0617 -2.6263 0.0 0
M  V30 13 C -9.3977 -1.8156 0.0 0
M  V30 END ATOM
M  V30 BEGIN BOND
M  V30 1 1 1 2
M  V30 2 1 3 2 CFG=1
M  V30 3 1 3 4
M  V30 4 1 3 5
M  V30 5 1 4 6
M  V30 6 1 5 7
M  V30 7 1 6 8
M  V30 8 1 7 9
M  V30 9 1 8 10
M  V30 10 1 9 11
M  V30 11 1 10 12
M  V30 12 1 12 13
M  V30 END BOND
M  V30 BEGIN COLLECTION
M  V30 MDLV30/STERAC1 ATOMS=(1 3)
M  V30 END COLLECTION
M  V30 END CTAB
M  END
>  <Molecule Name>
2-butyl-octanol

>  <Molecule Name 2>
2-butyl-octanol

>  <Database>
Essential Oil Database

>  <InChI>
InChI=1S/C12H26O/c1-3-5-7-8-10-12(11-13)9-6-4-2/h12-13H,3-11H2,1-2H3/t12-/m0/s1

>  <InChI-Key>
XMVBHZBLHNOQON-LBPRGKRZSA-N

>  <Smiles>
CCCCCCC(CCCC)CO

>  <Molecular Formula>
C12H26O

$$$$
beta-cadinene
Actelion Java MolfileCreator 2.0

  0  0  0  0  0  0              0 V3000
M  V30 BEGIN CTAB
M  V30 COUNTS 15 16 0 0 0
M  V30 BEGIN ATOM
M  V30 1 C 0.0 0.0 0.0 0
M  V30 2 C -1.3709 -0.7286 0.0 0
M  V30 3 C 1.2721 -0.7286 0.0 0 CFG=1
M  V30 4 C -0.0494 1.5809 0.0 0
M  V30 5 C -1.4203 -2.2107 0.0 0
M  V30 6 C 1.2227 -2.2107 0.0 0 CFG=2
M  V30 7 C 2.5442 0.0617 0.0 0
M  V30 8 C -0.1482 -2.9518 0.0 0 CFG=2
M  V30 9 C 2.4948 -2.9518 0.0 0
M  V30 10 C 3.8163 -0.6669 0.0 0
M  V30 11 C -0.1976 -4.4339 0.0 0
M  V30 12 C 3.7669 -2.1366 0.0 0
M  V30 13 C 1.0745 -5.1749 0.0 0
M  V30 14 C -1.5685 -5.1749 0.0 0
M  V30 15 C 5.0391 -2.8777 0.0 0
M  V30 END ATOM
M  V30 BEGIN BOND
M  V30 1 2 1 2
M  V30 2 1 1 3
M  V30 3 1 1 4
M  V30 4 1 2 5
M  V30 5 1 3 6
M  V30 6 1 3 7 CFG=3
M  V30 7 1 5 8
M  V30 8 1 6 9 CFG=1
M  V30 9 1 7 10
M  V30 10 1 8 11 CFG=3
M  V30 11 1 9 12
M  V30 12 1 11 13
M  V30 13 1 11 14
M  V30 14 1 12 15
M  V30 15 1 6 8
M  V30 16 2 10 12
M  V30 END BOND
M  V30 BEGIN COLLECTION
M  V30 MDLV30/STEABS ATOMS=(3 3 6 8)
M  V30 END COLLECTION
M  V30 END CTAB
M  END
>  <Molecule Name>
beta-cadinene

>  <Molecule Name 2>
beta-cadinene

>  <Database>
Essential Oil Database

>  <InChI>
InChI=1S/C15H24/c1-10(2)13-8-6-12(4)14-7-5-11(3)9-15(13)14/h5-6,10,13-15H,7-9H2,1-4H3/t13-,14-,15-/m0/s1

>  <InChI-Key>
USDOQCCMRDNVAH-KKUMJFAQSA-N

>  <Smiles>
CC(C)[C@H]1[C@H](CC(C)=CC2)[C@@H]2C(C)=CC1

>  <Molecular Formula>
C15H24

$$$$
1-phenylpropanol
Actelion Java MolfileCreator 2.0

  0  0  0  0  0  0              0 V3000
M  V30 BEGIN CTAB
M  V30 COUNTS 10 10 0 0 0
M  V30 BEGIN ATOM
M  V30 1 O 0.0 0.0 0.0 0
M  V30 2 C -1.3526 -0.7189 0.0 0 CFG=2
M  V30 3 C -1.4014 -2.1813 0.0 0
M  V30 4 C -2.7053 0.0609 0.0 0
M  V30 5 C -0.1462 -2.9002 0.0 0
M  V30 6 C -2.754 -2.9002 0.0 0
M  V30 7 C -2.754 1.6207 0.0 0
M  V30 8 C -0.1949 -4.3626 0.0 0
M  V30 9 C -2.8028 -4.3626 0.0 0
M  V30 10 C -1.5476 -5.0815 0.0 0
M  V30 END ATOM
M  V30 BEGIN BOND
M  V30 1 1 2 1 CFG=3
M  V30 2 1 2 3
M  V30 3 1 2 4
M  V30 4 2 3 5
M  V30 5 1 3 6
M  V30 6 1 4 7
M  V30 7 1 5 8
M  V30 8 2 6 9
M  V30 9 2 8 10
M  V30 10 1 9 10
M  V30 END BOND
M  V30 BEGIN COLLECTION
M  V30 MDLV30/STERAC1 ATOMS=(1 2)
M  V30 END COLLECTION
M  V30 END CTAB
M  END
>  <Molecule Name>
1-phenylpropanol

>  <Molecule Name 2>
1-phenylpropanol

>  <Database>
Essential Oil Database

>  <InChI>
InChI=1S/C9H12O/c1-2-9(10)8-6-4-3-5-7-8/h3-7,9-10H,2H2,1H3/t9-/m0/s1

>  <InChI-Key>
DYUQAZSOFZSPHD-VIFPVBQESA-N

>  <Smiles>
CCC(c1ccccc1)O

>  <Molecular Formula>
C9H12O

$$$$
2-phenylethyl alcohol
Actelion Java MolfileCreator 2.0

  0  0  0  0  0  0              0 V3000
M  V30 BEGIN CTAB
M  V30 COUNTS 9 9 0 0 0
M  V30 BEGIN ATOM
M  V30 1 O 0.0 0.0 0.0 0
M  V30 2 C -0.0474 -1.4945 0.0 0
M  V30 3 C 1.2454 -2.1943 0.0 0
M  V30 4 C 1.1979 -3.6888 0.0 0
M  V30 5 C 2.4908 -4.3886 0.0 0
M  V30 6 C -0.1897 -4.3886 0.0 0
M  V30 7 C 2.4434 -5.8832 0.0 0
M  V30 8 C -0.2372 -5.8832 0.0 0
M  V30 9 C 1.0556 -6.583 0.0 0
M  V30 END ATOM
M  V30 BEGIN BOND
M  V30 1 1 1 2
M  V30 2 1 2 3
M  V30 3 1 3 4
M  V30 4 2 4 5
M  V30 5 1 4 6
M  V30 6 1 5 7
M  V30 7 2 6 8
M  V30 8 2 7 9
M  V30 9 1 8 9
M  V30 END BOND
M  V30 END CTAB
M  END
>  <Molecule Name>
2-phenylethyl alcohol

>  <Molecule Name 2>
2-phenylethyl alcohol

>  <Database>
Essential Oil Database

>  <InChI>
InChI=1S/C8H10O/c9-7-6-8-4-2-1-3-5-8/h1-5,9H,6-7H2

>  <InChI-Key>
WRMNZCZEMHIOCP-UHFFFAOYSA-N

>  <Smiles>
OCCc1ccccc1

>  <Molecular Formula>
C8H10O

$$$$
4-methylhexyl 2-methylbutyrate
Actelion Java MolfileCreator 2.0

  0  0  0  0  0  0              0 V3000
M  V30 BEGIN CTAB
M  V30 COUNTS 14 13 0 0 0
M  V30 BEGIN ATOM
M  V30 1 O 0.0 0.0 0.0 0
M  V30 2 C -0.0483 1.5479 0.0 0
M  V30 3 O 1.1972 2.334 0.0 0
M  V30 4 C -1.3907 2.334 0.0 0
M  V30 5 C 2.4429 1.6084 0.0 0
M  V30 6 C -2.7331 1.6084 0.0 0
M  V30 7 C -1.4391 3.882 0.0 0
M  V30 8 C 3.6885 2.3945 0.0 0
M  V30 9 C -4.0755 2.3945 0.0 0
M  V30 10 C 4.9342 1.6689 0.0 0
M  V30 11 C 6.1798 2.455 0.0 0
M  V30 12 C 7.4255 1.7293 0.0 0
M  V30 13 C 6.1314 4.003 0.0 0
M  V30 14 C 8.6711 2.5154 0.0 0
M  V30 END ATOM
M  V30 BEGIN BOND
M  V30 1 2 1 2
M  V30 2 1 2 3
M  V30 3 1 2 4
M  V30 4 1 3 5
M  V30 5 1 4 6
M  V30 6 1 4 7
M  V30 7 1 5 8
M  V30 8 1 6 9
M  V30 9 1 8 10
M  V30 10 1 10 11
M  V30 11 1 11 12
M  V30 12 1 11 13
M  V30 13 1 12 14
M  V30 END BOND
M  V30 END CTAB
M  END
>  <Molecule Name>
4-methylhexyl 2-methylbutyrate

>  <Molecule Name 2>
4-methylhexyl 2-methylbutyrate

>  <Database>
Essential Oil Database

>  <InChI>
InChI=1S/C12H24O2/c1-5-10(3)8-7-9-14-12(13)11(4)6-2/h10-11H,5-9H2,1-4H3

>  <InChI-Key>
JIRUNGNWQRCSRR-UHFFFAOYSA-N

>  <Smiles>
CCC(C)CCCOC(C(C)CC)=O

>  <Molecular Formula>
C12H24O2

$$$$
4-methylpentyl-2-methylbutyrate
Actelion Java MolfileCreator 2.0

  0  0  0  0  0  0              0 V3000
M  V30 BEGIN CTAB
M  V30 COUNTS 13 12 0 0 0
M  V30 BEGIN ATOM
M  V30 1 O 0.0 0.0 0.0 0
M  V30 2 C -0.0466 -1.4689 0.0 0
M  V30 3 O 1.2241 -2.1801 0.0 0
M  V30 4 C -1.4106 -2.1801 0.0 0 CFG=2
M  V30 5 C 2.4948 -1.3523 0.0 0
M  V30 6 C -2.7746 -1.3523 0.0 0
M  V30 7 C -1.4572 -3.649 0.0 0
M  V30 8 C 3.7656 -2.0518 0.0 0
M  V30 9 C -4.1386 -2.0518 0.0 0
M  V30 10 C 5.0363 -1.2241 0.0 0
M  V30 11 C 6.3071 -1.9585 0.0 0
M  V30 12 C 7.5778 -1.1308 0.0 0
M  V30 13 C 6.2605 -3.4275 0.0 0
M  V30 END ATOM
M  V30 BEGIN BOND
M  V30 1 2 1 2
M  V30 2 1 2 3
M  V30 3 1 2 4
M  V30 4 1 3 5
M  V30 5 1 4 6
M  V30 6 1 4 7 CFG=1
M  V30 7 1 5 8
M  V30 8 1 6 9
M  V30 9 1 8 10
M  V30 10 1 10 11
M  V30 11 1 11 12
M  V30 12 1 11 13
M  V30 END BOND
M  V30 BEGIN COLLECTION
M  V30 MDLV30/STERAC1 ATOMS=(1 4)
M  V30 END COLLECTION
M  V30 END CTAB
M  END
>  <Molecule Name>
4-methylpentyl-2-methylbutyrate

>  <Molecule Name 2>
4-methylpentyl-2-methylbutyrate

>  <Database>
Essential Oil Database

>  <InChI>
InChI=1S/C11H22O2/c1-5-10(4)11(12)13-8-6-7-9(2)3/h9-10H,5-8H2,1-4H3/t10-/m0/s1

>  <InChI-Key>
RMXBPCDIHPZCQB-JTQLQIEISA-N

>  <Smiles>
CCC(C)C(OCCCC(C)C)=O

>  <Molecular Formula>
C11H22O2

$$$$
4-vinylphenol
Actelion Java MolfileCreator 2.0

  0  0  0  0  0  0              0 V3000
M  V30 BEGIN CTAB
M  V30 COUNTS 9 9 0 0 0
M  V30 BEGIN ATOM
M  V30 1 O 0.0 0.0 0.0 0
M  V30 2 C -0.0474 -1.4938 0.0 0
M  V30 3 C 1.2449 -2.1934 0.0 0
M  V30 4 C -1.4346 -2.1934 0.0 0
M  V30 5 C 1.1974 -3.6873 0.0 0
M  V30 6 C -1.482 -3.6873 0.0 0
M  V30 7 C -0.1897 -4.3868 0.0 0
M  V30 8 C -0.2371 -5.8807 0.0 0
M  V30 9 C 1.0552 -6.5921 0.0 0
M  V30 END ATOM
M  V30 BEGIN BOND
M  V30 1 1 1 2
M  V30 2 2 2 3
M  V30 3 1 2 4
M  V30 4 1 3 5
M  V30 5 2 4 6
M  V30 6 2 5 7
M  V30 7 1 7 8
M  V30 8 2 8 9
M  V30 9 1 6 7
M  V30 END BOND
M  V30 END CTAB
M  END
>  <Molecule Name>
4-vinylphenol

>  <Molecule Name 2>
4-vinylphenol

>  <Database>
Essential Oil Database

>  <InChI>
InChI=1S/C8H8O/c1-2-7-3-5-8(9)6-4-7/h2-6,9H,1H2

>  <InChI-Key>
FUGYGGDSWSUORM-UHFFFAOYSA-N

>  <Smiles>
C=Cc(cc1)ccc1O

>  <Molecular Formula>
C8H8O

$$$$
5-methylfurfural
Actelion Java MolfileCreator 2.0

  0  0  0  0  0  0              0 V3000
M  V30 BEGIN CTAB
M  V30 COUNTS 8 8 0 0 0
M  V30 BEGIN ATOM
M  V30 1 O 0.0 0.0 0.0 0
M  V30 2 C 0.5639 1.3746 0.0 0
M  V30 3 C -0.3289 2.5965 0.0 0
M  V30 4 O 0.0822 4.03 0.0 0
M  V30 5 C -1.8328 2.6435 0.0 0
M  V30 6 C -1.1396 4.9229 0.0 0
M  V30 7 C -2.3381 4.077 0.0 0
M  V30 8 C -1.1866 6.4268 0.0 0
M  V30 END ATOM
M  V30 BEGIN BOND
M  V30 1 2 1 2
M  V30 2 1 2 3
M  V30 3 1 3 4
M  V30 4 2 3 5
M  V30 5 1 4 6
M  V30 6 1 5 7
M  V30 7 1 6 8
M  V30 8 2 6 7
M  V30 END BOND
M  V30 END CTAB
M  END
>  <Molecule Name>
5-methylfurfural

>  <Molecule Name 2>
5-methylfurfural

>  <Database>
Essential Oil Database

>  <InChI>
InChI=1S/C6H6O2/c1-5-2-3-6(4-7)8-5/h2-4H,1H3

>  <InChI-Key>
OUDFNZMQXZILJD-UHFFFAOYSA-N

>  <Smiles>
Cc1ccc(C=O)[o]1

>  <Molecular Formula>
C6H6O2

$$$$
6-methyl-2-heptanol
Actelion Java MolfileCreator 2.0

  0  0  0  0  0  0              0 V3000
M  V30 BEGIN CTAB
M  V30 COUNTS 9 8 0 0 0
M  V30 BEGIN ATOM
M  V30 1 O 0.0 0.0 0.0 0
M  V30 2 C -0.0489 1.5664 0.0 0 CFG=2
M  V30 3 C 1.2115 2.3619 0.0 0
M  V30 4 C -1.4073 2.3619 0.0 0
M  V30 5 C 2.472 1.6276 0.0 0
M  V30 6 C 3.7326 2.4231 0.0 0
M  V30 7 C 4.9931 1.6888 0.0 0
M  V30 8 C 6.2536 2.4843 0.0 0
M  V30 9 C 4.9441 0.2202 0.0 0
M  V30 END ATOM
M  V30 BEGIN BOND
M  V30 1 1 2 1 CFG=1
M  V30 2 1 2 3
M  V30 3 1 2 4
M  V30 4 1 3 5
M  V30 5 1 5 6
M  V30 6 1 6 7
M  V30 7 1 7 8
M  V30 8 1 7 9
M  V30 END BOND
M  V30 BEGIN COLLECTION
M  V30 MDLV30/STERAC1 ATOMS=(1 2)
M  V30 END COLLECTION
M  V30 END CTAB
M  END
>  <Molecule Name>
6-methyl-2-heptanol

>  <Molecule Name 2>
6-methyl-2-heptanol

>  <Database>
Essential Oil Database

>  <InChI>
InChI=1S/C8H18O/c1-7(2)5-4-6-8(3)9/h7-9H,4-6H2,1-3H3/t8-/m0/s1

>  <InChI-Key>
FCOUHTHQYOMLJT-QMMMGPOBSA-N

>  <Smiles>
CC(C)CCCC(C)O

>  <Molecular Formula>
C8H18O

$$$$
alpha-himachalene
Actelion Java MolfileCreator 2.0

  0  0  0  0  0  0              0 V3000
M  V30 BEGIN CTAB
M  V30 COUNTS 15 16 0 0 0
M  V30 BEGIN ATOM
M  V30 1 C 0.0 0.0 0.0 0
M  V30 2 C -0.3795 1.5183 0.0 0
M  V30 3 C -1.2217 -0.8896 0.0 0
M  V30 4 C 1.4234 -0.2846 0.0 0
M  V30 5 C -1.2692 -2.3486 0.0 0
M  V30 6 C -2.574 -0.0948 0.0 0
M  V30 7 C 2.0284 -1.5895 0.0 0
M  V30 8 C -2.6215 -3.0722 0.0 0
M  V30 9 C -0.1423 -3.2383 0.0 0
M  V30 10 C -3.9263 -0.7947 0.0 0
M  V30 11 C 1.3285 -2.8943 0.0 0
M  V30 12 C -3.9738 -2.2656 0.0 0
M  V30 13 C 0.1779 -4.6499 0.0 0
M  V30 14 C -1.1506 -4.3415 0.0 0
M  V30 15 C -5.326 -2.9892 0.0 0
M  V30 END ATOM
M  V30 BEGIN BOND
M  V30 1 2 1 2
M  V30 2 1 1 3
M  V30 3 1 1 4
M  V30 4 1 3 5
M  V30 5 1 3 6
M  V30 6 1 4 7
M  V30 7 1 5 8
M  V30 8 1 5 9
M  V30 9 1 6 10
M  V30 10 1 7 11
M  V30 11 2 8 12
M  V30 12 1 9 13
M  V30 13 1 9 14
M  V30 14 1 12 15
M  V30 15 1 9 11
M  V30 16 1 10 12
M  V30 END BOND
M  V30 END CTAB
M  END
>  <Molecule Name>
alpha-himachalene

>  <Molecule Name 2>
alpha-himachalene

>  <Database>
Essential Oil Database

>  <InChI>
InChI=1S/C15H24/c1-11-7-8-13-12(2)6-5-9-15(3,4)14(13)10-11/h10,13-14H,2,5-9H2,1,3-4H3

>  <InChI-Key>
ZJSIKVDEOWWVEH-UHFFFAOYSA-N

>  <Smiles>
CC(C)(CCC1)C2C=C(C)CCC2C1=C

>  <Molecular Formula>
C15H24

$$$$
benzaldehyde
Actelion Java MolfileCreator 2.0

  0  0  0  0  0  0              0 V3000
M  V30 BEGIN CTAB
M  V30 COUNTS 8 8 0 0 0
M  V30 BEGIN ATOM
M  V30 1 O 0.0 0.0 0.0 0
M  V30 2 C 1.2923 -0.6995 0.0 0
M  V30 3 C 1.2449 -2.1934 0.0 0
M  V30 4 C 2.5373 -2.893 0.0 0
M  V30 5 C -0.1422 -2.893 0.0 0
M  V30 6 C 2.4898 -4.3869 0.0 0
M  V30 7 C -0.1897 -4.3869 0.0 0
M  V30 8 C 1.1026 -5.0865 0.0 0
M  V30 END ATOM
M  V30 BEGIN BOND
M  V30 1 2 1 2
M  V30 2 1 2 3
M  V30 3 2 3 4
M  V30 4 1 3 5
M  V30 5 1 4 6
M  V30 6 2 5 7
M  V30 7 2 6 8
M  V30 8 1 7 8
M  V30 END BOND
M  V30 END CTAB
M  END
>  <Molecule Name>
benzaldehyde

>  <Molecule Name 2>
benzaldehyde

>  <Database>
Essential Oil Database

>  <InChI>
InChI=1S/C7H6O/c8-6-7-4-2-1-3-5-7/h1-6H

>  <InChI-Key>
HUMNYLRZRPPJDN-UHFFFAOYSA-N

>  <Smiles>
O=Cc1ccccc1

>  <Molecular Formula>
C7H6O

$$$$
benzyl alcohol
Actelion Java MolfileCreator 2.0

  0  0  0  0  0  0              0 V3000
M  V30 BEGIN CTAB
M  V30 COUNTS 8 8 0 0 0
M  V30 BEGIN ATOM
M  V30 1 O 0.0 0.0 0.0 0
M  V30 2 C 1.2923 -0.6995 0.0 0
M  V30 3 C 1.2449 -2.1934 0.0 0
M  V30 4 C 2.5373 -2.893 0.0 0
M  V30 5 C -0.1422 -2.893 0.0 0
M  V30 6 C 2.4898 -4.3869 0.0 0
M  V30 7 C -0.1897 -4.3869 0.0 0
M  V30 8 C 1.1026 -5.0865 0.0 0
M  V30 END ATOM
M  V30 BEGIN BOND
M  V30 1 1 1 2
M  V30 2 1 2 3
M  V30 3 2 3 4
M  V30 4 1 3 5
M  V30 5 1 4 6
M  V30 6 2 5 7
M  V30 7 2 6 8
M  V30 8 1 7 8
M  V30 END BOND
M  V30 END CTAB
M  END
>  <Molecule Name>
benzyl alcohol

>  <Molecule Name 2>
benzyl alcohol

>  <Database>
Essential Oil Database

>  <InChI>
InChI=1S/C7H8O/c8-6-7-4-2-1-3-5-7/h1-5,8H,6H2

>  <InChI-Key>
WVDDGKGOMKODPV-UHFFFAOYSA-N

>  <Smiles>
OCc1ccccc1

>  <Molecular Formula>
C7H8O

$$$$
cyclohexanol
Actelion Java MolfileCreator 2.0

  0  0  0  0  0  0              0 V3000
M  V30 BEGIN CTAB
M  V30 COUNTS 7 7 0 0 0
M  V30 BEGIN ATOM
M  V30 1 O 0.0 0.0 0.0 0
M  V30 2 C -0.0472 -1.4896 0.0 0
M  V30 3 C 1.2413 -2.1871 0.0 0
M  V30 4 C -1.4305 -2.1871 0.0 0
M  V30 5 C 1.194 -3.6767 0.0 0
M  V30 6 C -1.4777 -3.6767 0.0 0
M  V30 7 C -0.1891 -4.3742 0.0 0
M  V30 END ATOM
M  V30 BEGIN BOND
M  V30 1 1 1 2
M  V30 2 1 2 3
M  V30 3 1 2 4
M  V30 4 1 3 5
M  V30 5 1 4 6
M  V30 6 1 5 7
M  V30 7 1 6 7
M  V30 END BOND
M  V30 END CTAB
M  END
>  <Molecule Name>
cyclohexanol

>  <Molecule Name 2>
cyclohexanol

>  <Database>
Essential Oil Database

>  <InChI>
InChI=1S/C6H12O/c7-6-4-2-1-3-5-6/h6-7H,1-5H2

>  <InChI-Key>
HPXRVTGHNJAIIH-UHFFFAOYSA-N

>  <Smiles>
OC1CCCCC1

>  <Molecular Formula>
C6H12O

$$$$
(e)-2-methyl-3-octen-5-yne
Actelion Java MolfileCreator 2.0

  0  0  0  0  0  0              0 V3000
M  V30 BEGIN CTAB
M  V30 COUNTS 9 8 0 0 0
M  V30 BEGIN ATOM
M  V30 1 C 0.0 0.0 0.0 0
M  V30 2 C -1.5646 0.0488 0.0 0
M  V30 3 C 1.4669 0.0488 0.0 0
M  V30 4 C -3.1293 0.0977 0.0 0
M  V30 5 C 2.2003 -1.2101 0.0 0
M  V30 6 C -3.9239 -1.1612 0.0 0
M  V30 7 C 3.6672 -1.1612 0.0 0
M  V30 8 C 4.3884 -2.4203 0.0 0
M  V30 9 C 4.3884 0.1955 0.0 0
M  V30 END ATOM
M  V30 BEGIN BOND
M  V30 1 3 1 2
M  V30 2 1 1 3
M  V30 3 1 2 4
M  V30 4 2 3 5
M  V30 5 1 4 6
M  V30 6 1 5 7
M  V30 7 1 7 8
M  V30 8 1 7 9
M  V30 END BOND
M  V30 END CTAB
M  END
>  <Molecule Name>
(e)-2-methyl-3-octen-5-yne

>  <Molecule Name 2>
(e)-2-methyl-3-octen-5-yne

>  <Database>
Essential Oil Database

>  <InChI>
InChI=1S/C9H14/c1-4-5-6-7-8-9(2)3/h7-9H,4H2,1-3H3/b8-7+

>  <InChI-Key>
MJQSRVNSUGZDMW-BQYQJAHWSA-N

>  <Smiles>
CCC#C/C=C/C(C)C

>  <Molecular Formula>
C9H14

$$$$
ethyl hexadecanoate
Actelion Java MolfileCreator 2.0

  0  0  0  0  0  0              0 V3000
M  V30 BEGIN CTAB
M  V30 COUNTS 20 19 0 0 0
M  V30 BEGIN ATOM
M  V30 1 O 0.0 0.0 0.0 0
M  V30 2 C -0.0474 1.5176 0.0 0
M  V30 3 O 1.1738 2.2883 0.0 0
M  V30 4 C -1.3635 2.2883 0.0 0
M  V30 5 C 2.395 1.5769 0.0 0
M  V30 6 C -2.6796 1.5769 0.0 0
M  V30 7 C 3.6163 2.3476 0.0 0
M  V30 8 C -3.9957 2.3476 0.0 0
M  V30 9 C -5.3118 1.6362 0.0 0
M  V30 10 C -6.628 2.4188 0.0 0
M  V30 11 C -7.9441 1.7073 0.0 0
M  V30 12 C -9.2602 2.478 0.0 0
M  V30 13 C -10.5763 1.7666 0.0 0
M  V30 14 C -11.8924 2.5373 0.0 0
M  V30 15 C -13.2086 1.8259 0.0 0
M  V30 16 C -14.5247 2.5966 0.0 0
M  V30 17 C -15.8408 1.8852 0.0 0
M  V30 18 C -17.1569 2.6559 0.0 0
M  V30 19 C -18.473 1.9445 0.0 0
M  V30 20 C -19.7891 2.7152 0.0 0
M  V30 END ATOM
M  V30 BEGIN BOND
M  V30 1 2 1 2
M  V30 2 1 2 3
M  V30 3 1 2 4
M  V30 4 1 3 5
M  V30 5 1 4 6
M  V30 6 1 5 7
M  V30 7 1 6 8
M  V30 8 1 8 9
M  V30 9 1 9 10
M  V30 10 1 10 11
M  V30 11 1 11 12
M  V30 12 1 12 13
M  V30 13 1 13 14
M  V30 14 1 14 15
M  V30 15 1 15 16
M  V30 16 1 16 17
M  V30 17 1 17 18
M  V30 18 1 18 19
M  V30 19 1 19 20
M  V30 END BOND
M  V30 END CTAB
M  END
>  <Molecule Name>
ethyl hexadecanoate

>  <Molecule Name 2>
ethyl hexadecanoate

>  <Database>
Essential Oil Database

>  <InChI>
InChI=1S/C18H36O2/c1-3-5-6-7-8-9-10-11-12-13-14-15-16-17-18(19)20-4-2/h3-17H2,1-2H3

>  <InChI-Key>
XIRNKXNNONJFQO-UHFFFAOYSA-N

>  <Smiles>
CCCCCCCCCCCCCCCC(OCC)=O

>  <Molecular Formula>
C18H36O2

$$$$
ethyl linoleate
Actelion Java MolfileCreator 2.0

  0  0  0  0  0  0              0 V3000
M  V30 BEGIN CTAB
M  V30 COUNTS 22 21 0 0 0
M  V30 BEGIN ATOM
M  V30 1 O 0.0 0.0 0.0 0
M  V30 2 C -0.0476 1.5243 0.0 0
M  V30 3 O 1.179 2.2984 0.0 0
M  V30 4 C -1.3695 2.2984 0.0 0
M  V30 5 C 2.4056 1.5839 0.0 0
M  V30 6 C -2.6915 1.5839 0.0 0
M  V30 7 C 3.6323 2.358 0.0 0
M  V30 8 C -4.0134 2.358 0.0 0
M  V30 9 C -5.3353 1.6434 0.0 0
M  V30 10 C -6.6573 2.4175 0.0 0
M  V30 11 C -7.9792 1.703 0.0 0
M  V30 12 C -9.3011 2.4771 0.0 0
M  V30 13 C -10.6231 1.7625 0.0 0
M  V30 14 C -11.945 2.5366 0.0 0
M  V30 15 C -11.9926 4.061 0.0 0
M  V30 16 C -13.3146 4.8351 0.0 0
M  V30 17 C -13.3622 6.3595 0.0 0
M  V30 18 C -12.1355 7.1336 0.0 0
M  V30 19 C -12.1832 8.658 0.0 0
M  V30 20 C -10.9565 9.4321 0.0 0
M  V30 21 C -11.0042 10.9565 0.0 0
M  V30 22 C -9.7775 11.7306 0.0 0
M  V30 END ATOM
M  V30 BEGIN BOND
M  V30 1 2 1 2
M  V30 2 1 2 3
M  V30 3 1 2 4
M  V30 4 1 3 5
M  V30 5 1 4 6
M  V30 6 1 5 7
M  V30 7 1 6 8
M  V30 8 1 8 9
M  V30 9 1 9 10
M  V30 10 1 10 11
M  V30 11 1 11 12
M  V30 12 1 12 13
M  V30 13 2 13 14
M  V30 14 1 14 15
M  V30 15 1 15 16
M  V30 16 2 16 17
M  V30 17 1 17 18
M  V30 18 1 18 19
M  V30 19 1 19 20
M  V30 20 1 20 21
M  V30 21 1 21 22
M  V30 END BOND
M  V30 END CTAB
M  END
>  <Molecule Name>
ethyl linoleate

>  <Molecule Name 2>
ethyl linoleate

>  <Database>
Essential Oil Database

>  <InChI>
InChI=1S/C20H36O2/c1-3-5-6-7-8-9-10-11-12-13-14-15-16-17-18-19-20(21)22-4-2/h8-9,11-12H,3-7,10,13-19H2,1-2H3/b9-8-,12-11-

>  <InChI-Key>
FMMOOAYVCKXGMF-MURFETPASA-N

>  <Smiles>
CCCCC/C=C\C/C=C\CCCCCCCC(OCC)=O

>  <Molecular Formula>
C20H36O2

$$$$
ethyl linolenate
Actelion Java MolfileCreator 2.0

  0  0  0  0  0  0              0 V3000
M  V30 BEGIN CTAB
M  V30 COUNTS 22 21 0 0 0
M  V30 BEGIN ATOM
M  V30 1 O 0.0 0.0 0.0 0
M  V30 2 C -0.0478 1.5313 0.0 0
M  V30 3 O 1.1843 2.2969 0.0 0
M  V30 4 C -1.3758 2.2969 0.0 0
M  V30 5 C 2.4166 1.5791 0.0 0
M  V30 6 C -2.7037 1.5791 0.0 0
M  V30 7 C 3.6488 2.3568 0.0 0
M  V30 8 C -4.0317 2.3568 0.0 0
M  V30 9 C -5.3596 1.639 0.0 0
M  V30 10 C -6.6876 2.4166 0.0 0
M  V30 11 C -8.0155 1.6988 0.0 0
M  V30 12 C -9.3435 2.4764 0.0 0
M  V30 13 C -10.6714 1.7586 0.0 0
M  V30 14 C -11.9994 2.5362 0.0 0
M  V30 15 C -12.0472 4.0675 0.0 0
M  V30 16 C -13.3752 4.8452 0.0 0
M  V30 17 C -13.423 6.3765 0.0 0
M  V30 18 C -12.1908 7.1422 0.0 0
M  V30 19 C -12.2386 8.6735 0.0 0
M  V30 20 C -11.0064 9.4392 0.0 0
M  V30 21 C -9.7741 8.7333 0.0 0
M  V30 22 C -8.5419 9.499 0.0 0
M  V30 END ATOM
M  V30 BEGIN BOND
M  V30 1 2 1 2
M  V30 2 1 2 3
M  V30 3 1 2 4
M  V30 4 1 3 5
M  V30 5 1 4 6
M  V30 6 1 5 7
M  V30 7 1 6 8
M  V30 8 1 8 9
M  V30 9 1 9 10
M  V30 10 1 10 11
M  V30 11 1 11 12
M  V30 12 1 12 13
M  V30 13 2 13 14
M  V30 14 1 14 15
M  V30 15 1 15 16
M  V30 16 2 16 17
M  V30 17 1 17 18
M  V30 18 1 18 19
M  V30 19 2 19 20
M  V30 20 1 20 21
M  V30 21 1 21 22
M  V30 END BOND
M  V30 END CTAB
M  END
>  <Molecule Name>
ethyl linolenate

>  <Molecule Name 2>
ethyl linolenate

>  <Database>
Essential Oil Database

>  <InChI>
InChI=1S/C20H34O2/c1-3-5-6-7-8-9-10-11-12-13-14-15-16-17-18-19-20(21)22-4-2/h5-6,8-9,11-12H,3-4,7,10,13-19H2,1-2H3/b6-5-,9-8-,12-11-

>  <InChI-Key>
JYYFMIOPGOFNPK-AGRJPVHOSA-N

>  <Smiles>
CC/C=C\C/C=C\C/C=C\CCCCCCCC(OCC)=O

>  <Molecular Formula>
C20H34O2

$$$$
heneicosane
Actelion Java MolfileCreator 2.0

  0  0  0  0  0  0              0 V3000
M  V30 BEGIN CTAB
M  V30 COUNTS 21 20 0 0 0
M  V30 BEGIN ATOM
M  V30 1 C 0.0 0.0 0.0 0
M  V30 2 C -1.3478 -0.6949 0.0 0
M  V30 3 C 1.2636 -0.6949 0.0 0
M  V30 4 C -2.6956 0.0842 0.0 0
M  V30 5 C 2.5272 0.0842 0.0 0
M  V30 6 C -4.0435 -0.6107 0.0 0
M  V30 7 C 3.7908 -0.6107 0.0 0
M  V30 8 C -5.3913 0.1684 0.0 0
M  V30 9 C 5.0544 0.1684 0.0 0
M  V30 10 C -6.7392 -0.5265 0.0 0
M  V30 11 C 6.318 -0.5265 0.0 0
M  V30 12 C -8.087 0.2527 0.0 0
M  V30 13 C 7.5816 0.2527 0.0 0
M  V30 14 C -9.4348 -0.4422 0.0 0
M  V30 15 C 8.8452 -0.4422 0.0 0
M  V30 16 C -10.7827 0.3369 0.0 0
M  V30 17 C 10.1088 0.3369 0.0 0
M  V30 18 C -12.1305 -0.358 0.0 0
M  V30 19 C 11.3724 -0.358 0.0 0
M  V30 20 C -13.4784 0.4212 0.0 0
M  V30 21 C 12.636 0.4212 0.0 0
M  V30 END ATOM
M  V30 BEGIN BOND
M  V30 1 1 1 2
M  V30 2 1 1 3
M  V30 3 1 2 4
M  V30 4 1 3 5
M  V30 5 1 4 6
M  V30 6 1 5 7
M  V30 7 1 6 8
M  V30 8 1 7 9
M  V30 9 1 8 10
M  V30 10 1 9 11
M  V30 11 1 10 12
M  V30 12 1 11 13
M  V30 13 1 12 14
M  V30 14 1 13 15
M  V30 15 1 14 16
M  V30 16 1 15 17
M  V30 17 1 16 18
M  V30 18 1 17 19
M  V30 19 1 18 20
M  V30 20 1 19 21
M  V30 END BOND
M  V30 END CTAB
M  END
>  <Molecule Name>
heneicosane

>  <Molecule Name 2>
heneicosane

>  <Database>
Essential Oil Database

>  <InChI>
InChI=1S/C21H44/c1-3-5-7-9-11-13-15-17-19-21-20-18-16-14-12-10-8-6-4-2/h3-21H2,1-2H3

>  <InChI-Key>
FNAZRRHPUDJQCJ-UHFFFAOYSA-N

>  <Smiles>
CCCCCCCCCCCCCCCCCCCCC

>  <Molecular Formula>
C21H44

$$$$
hexadecyl acetate
Actelion Java MolfileCreator 2.0

  0  0  0  0  0  0              0 V3000
M  V30 BEGIN CTAB
M  V30 COUNTS 20 19 0 0 0
M  V30 BEGIN ATOM
M  V30 1 O 0.0 0.0 0.0 0
M  V30 2 C 1.2844 -0.7188 0.0 0
M  V30 3 O 2.5688 0.1178 0.0 0
M  V30 4 C 1.2373 -2.2035 0.0 0
M  V30 5 C 3.8533 -0.5891 0.0 0
M  V30 6 C 5.1377 0.2474 0.0 0
M  V30 7 C 6.4221 -0.4595 0.0 0
M  V30 8 C 7.7066 0.377 0.0 0
M  V30 9 C 8.991 -0.3417 0.0 0
M  V30 10 C 10.2754 0.4949 0.0 0
M  V30 11 C 11.5599 -0.2121 0.0 0
M  V30 12 C 12.8443 0.6245 0.0 0
M  V30 13 C 14.1288 -0.0824 0.0 0
M  V30 14 C 15.4132 0.7541 0.0 0
M  V30 15 C 16.6976 0.0353 0.0 0
M  V30 16 C 17.9821 0.872 0.0 0
M  V30 17 C 19.2665 0.1649 0.0 0
M  V30 18 C 20.5509 1.0016 0.0 0
M  V30 19 C 21.8354 0.2828 0.0 0
M  V30 20 C 23.1198 1.1194 0.0 0
M  V30 END ATOM
M  V30 BEGIN BOND
M  V30 1 2 1 2
M  V30 2 1 2 3
M  V30 3 1 2 4
M  V30 4 1 3 5
M  V30 5 1 5 6
M  V30 6 1 6 7
M  V30 7 1 7 8
M  V30 8 1 8 9
M  V30 9 1 9 10
M  V30 10 1 10 11
M  V30 11 1 11 12
M  V30 12 1 12 13
M  V30 13 1 13 14
M  V30 14 1 14 15
M  V30 15 1 15 16
M  V30 16 1 16 17
M  V30 17 1 17 18
M  V30 18 1 18 19
M  V30 19 1 19 20
M  V30 END BOND
M  V30 END CTAB
M  END
>  <Molecule Name>
hexadecyl acetate

>  <Molecule Name 2>
hexadecyl acetate

>  <Database>
Essential Oil Database

>  <InChI>
InChI=1S/C18H36O2/c1-3-4-5-6-7-8-9-10-11-12-13-14-15-16-17-20-18(2)19/h3-17H2,1-2H3

>  <InChI-Key>
LSTDYDRCKUBPDI-UHFFFAOYSA-N

>  <Smiles>
CCCCCCCCCCCCCCCCOC(C)=O

>  <Molecular Formula>
C18H36O2

$$$$
isobergapten
Actelion Java MolfileCreator 2.0

  0  0  0  0  0  0              0 V3000
M  V30 BEGIN CTAB
M  V30 COUNTS 16 18 0 0 0
M  V30 BEGIN ATOM
M  V30 1 O 0.0 0.0 0.0 0
M  V30 2 C 0.7786 -1.2622 0.0 0
M  V30 3 O 2.265 -1.1679 0.0 0
M  V30 4 C 0.0235 -2.5717 0.0 0
M  V30 5 C 3.0436 -2.4302 0.0 0
M  V30 6 C 0.8022 -3.834 0.0 0
M  V30 7 C 2.2886 -3.7397 0.0 0
M  V30 8 C 4.5301 -2.3358 0.0 0
M  V30 9 C 3.0672 -5.002 0.0 0
M  V30 10 C 5.3087 -3.5981 0.0 0
M  V30 11 C 5.4856 -1.1089 0.0 0
M  V30 12 O 2.3122 -6.3114 0.0 0
M  V30 13 C 4.5537 -4.9076 0.0 0
M  V30 14 O 6.7479 -3.197 0.0 0
M  V30 15 C 6.8659 -1.628 0.0 0
M  V30 16 C 3.0908 -7.5737 0.0 0
M  V30 END ATOM
M  V30 BEGIN BOND
M  V30 1 2 1 2
M  V30 2 1 2 3
M  V30 3 1 2 4
M  V30 4 1 3 5
M  V30 5 2 4 6
M  V30 6 2 5 7
M  V30 7 1 5 8
M  V30 8 1 7 9
M  V30 9 2 8 10
M  V30 10 1 8 11
M  V30 11 1 9 12
M  V30 12 2 9 13
M  V30 13 1 10 14
M  V30 14 2 11 15
M  V30 15 1 12 16
M  V30 16 1 6 7
M  V30 17 1 10 13
M  V30 18 1 14 15
M  V30 END BOND
M  V30 END CTAB
M  END
>  <Molecule Name>
isobergapten

>  <Molecule Name 2>
isobergapten

>  <Database>
Essential Oil Database

>  <InChI>
InChI=1S/C12H8O4/c1-14-9-6-10-8(4-5-15-10)12-7(9)2-3-11(13)16-12/h2-6H,1H3

>  <InChI-Key>
AJSPSRWWZBBIOR-UHFFFAOYSA-N

>  <Smiles>
COc1cc([o]cc2)c2c(O2)c1C=CC2=O

>  <Molecular Formula>
C12H8O4

$$$$
linolenic acid
Actelion Java MolfileCreator 2.0

  0  0  0  0  0  0              0 V3000
M  V30 BEGIN CTAB
M  V30 COUNTS 20 19 0 0 0
M  V30 BEGIN ATOM
M  V30 1 O 0.0 0.0 0.0 0
M  V30 2 C -0.0477 1.5287 0.0 0
M  V30 3 O 1.1823 2.317 0.0 0
M  V30 4 C -1.3734 2.317 0.0 0
M  V30 5 C -2.6992 1.6004 0.0 0
M  V30 6 C -4.0249 2.3767 0.0 0
M  V30 7 C -5.3506 1.6601 0.0 0
M  V30 8 C -6.6763 2.4364 0.0 0
M  V30 9 C -8.002 1.7198 0.0 0
M  V30 10 C -8.0498 0.2866 0.0 0
M  V30 11 C -6.8196 -0.418 0.0 0
M  V30 12 C -6.8674 -1.8512 0.0 0
M  V30 13 C -8.1931 -2.5678 0.0 0
M  V30 14 C -8.2409 -4.001 0.0 0
M  V30 15 C -9.5666 -4.7176 0.0 0
M  V30 16 C -10.8923 -3.9413 0.0 0
M  V30 17 C -12.2181 -4.6459 0.0 0
M  V30 18 C -13.5438 -3.8696 0.0 0
M  V30 19 C -13.5916 -2.3409 0.0 0
M  V30 20 C -14.9173 -1.5645 0.0 0
M  V30 END ATOM
M  V30 BEGIN BOND
M  V30 1 2 1 2
M  V30 2 1 2 3
M  V30 3 1 2 4
M  V30 4 1 4 5
M  V30 5 1 5 6
M  V30 6 1 6 7
M  V30 7 1 7 8
M  V30 8 1 8 9
M  V30 9 1 9 10
M  V30 10 1 10 11
M  V30 11 2 11 12
M  V30 12 1 12 13
M  V30 13 1 13 14
M  V30 14 2 14 15
M  V30 15 1 15 16
M  V30 16 1 16 17
M  V30 17 2 17 18
M  V30 18 1 18 19
M  V30 19 1 19 20
M  V30 END BOND
M  V30 END CTAB
M  END
>  <Molecule Name>
linolenic acid

>  <Molecule Name 2>
linolenic acid

>  <Database>
Essential Oil Database

>  <InChI>
InChI=1S/C18H30O2/c1-2-3-4-5-6-7-8-9-10-11-12-13-14-15-16-17-18(19)20/h3-4,6-7,9-10H,2,5,8,11-17H2,1H3,(H,19,20)/b4-3-,7-6-,10-9-

>  <InChI-Key>
DTOSIQBPPRVQHS-PDBXOOCHSA-N

>  <Smiles>
CC/C=C\C/C=C\C/C=C\CCCCCCCC(O)=O

>  <Molecular Formula>
C18H30O2

$$$$
oleic acid
Actelion Java MolfileCreator 2.0

  0  0  0  0  0  0              0 V3000
M  V30 BEGIN CTAB
M  V30 COUNTS 20 19 0 0 0
M  V30 BEGIN ATOM
M  V30 1 O 0.0 0.0 0.0 0
M  V30 2 C -0.047 1.5049 0.0 0
M  V30 3 O 1.1639 2.2691 0.0 0
M  V30 4 C -1.3521 2.2691 0.0 0
M  V30 5 C -2.6571 1.5637 0.0 0
M  V30 6 C -3.9622 2.3279 0.0 0
M  V30 7 C -5.2673 1.6225 0.0 0
M  V30 8 C -6.5724 2.3867 0.0 0
M  V30 9 C -7.8774 1.6813 0.0 0
M  V30 10 C -9.1825 2.4455 0.0 0
M  V30 11 C -10.4876 1.74 0.0 0
M  V30 12 C -11.7926 2.5043 0.0 0
M  V30 13 C -11.8397 4.0092 0.0 0
M  V30 14 C -13.1448 4.7735 0.0 0
M  V30 15 C -13.1918 6.2784 0.0 0
M  V30 16 C -14.4969 7.0309 0.0 0
M  V30 17 C -14.5439 8.5358 0.0 0
M  V30 18 C -15.849 9.3001 0.0 0
M  V30 19 C -15.896 10.805 0.0 0
M  V30 20 C -17.2011 11.5693 0.0 0
M  V30 END ATOM
M  V30 BEGIN BOND
M  V30 1 2 1 2
M  V30 2 1 2 3
M  V30 3 1 2 4
M  V30 4 1 4 5
M  V30 5 1 5 6
M  V30 6 1 6 7
M  V30 7 1 7 8
M  V30 8 1 8 9
M  V30 9 1 9 10
M  V30 10 1 10 11
M  V30 11 2 11 12
M  V30 12 1 12 13
M  V30 13 1 13 14
M  V30 14 1 14 15
M  V30 15 1 15 16
M  V30 16 1 16 17
M  V30 17 1 17 18
M  V30 18 1 18 19
M  V30 19 1 19 20
M  V30 END BOND
M  V30 END CTAB
M  END
>  <Molecule Name>
oleic acid

>  <Molecule Name 2>
oleic acid

>  <Database>
Essential Oil Database

>  <InChI>
InChI=1S/C18H34O2/c1-2-3-4-5-6-7-8-9-10-11-12-13-14-15-16-17-18(19)20/h9-10H,2-8,11-17H2,1H3,(H,19,20)/b10-9-

>  <InChI-Key>
ZQPPMHVWECSIRJ-KTKRTIGZSA-N

>  <Smiles>
CCCCCCCC/C=C\CCCCCCCC(O)=O

>  <Molecular Formula>
C18H34O2

$$$$
palmitoleic acid
Actelion Java MolfileCreator 2.0

  0  0  0  0  0  0              0 V3000
M  V30 BEGIN CTAB
M  V30 COUNTS 18 17 0 0 0
M  V30 BEGIN ATOM
M  V30 1 O 0.0 0.0 0.0 0
M  V30 2 C -0.047 1.5056 0.0 0
M  V30 3 O 1.1645 2.2702 0.0 0
M  V30 4 C -1.3527 2.2702 0.0 0
M  V30 5 C -2.6584 1.5644 0.0 0
M  V30 6 C -3.9641 2.329 0.0 0
M  V30 7 C -5.2698 1.6232 0.0 0
M  V30 8 C -6.5755 2.3878 0.0 0
M  V30 9 C -7.8812 1.6821 0.0 0
M  V30 10 C -9.1869 2.4467 0.0 0
M  V30 11 C -10.4925 1.7409 0.0 0
M  V30 12 C -11.7982 2.5172 0.0 0
M  V30 13 C -11.8453 4.0229 0.0 0
M  V30 14 C -13.151 4.7875 0.0 0
M  V30 15 C -13.198 6.2932 0.0 0
M  V30 16 C -14.5037 7.046 0.0 0
M  V30 17 C -14.5508 8.5517 0.0 0
M  V30 18 C -15.8565 9.3162 0.0 0
M  V30 END ATOM
M  V30 BEGIN BOND
M  V30 1 2 1 2
M  V30 2 1 2 3
M  V30 3 1 2 4
M  V30 4 1 4 5
M  V30 5 1 5 6
M  V30 6 1 6 7
M  V30 7 1 7 8
M  V30 8 1 8 9
M  V30 9 1 9 10
M  V30 10 1 10 11
M  V30 11 2 11 12
M  V30 12 1 12 13
M  V30 13 1 13 14
M  V30 14 1 14 15
M  V30 15 1 15 16
M  V30 16 1 16 17
M  V30 17 1 17 18
M  V30 END BOND
M  V30 END CTAB
M  END
>  <Molecule Name>
palmitoleic acid

>  <Molecule Name 2>
palmitoleic acid

>  <Database>
Essential Oil Database

>  <InChI>
InChI=1S/C16H30O2/c1-2-3-4-5-6-7-8-9-10-11-12-13-14-15-16(17)18/h7-8H,2-6,9-15H2,1H3,(H,17,18)/b8-7-

>  <InChI-Key>
SECPZKHBENQXJG-FPLPWBNLSA-N

>  <Smiles>
CCCCCC/C=C\CCCCCCCC(O)=O

>  <Molecular Formula>
C16H30O2

$$$$
phenyl acetaldehyde
Actelion Java MolfileCreator 2.0

  0  0  0  0  0  0              0 V3000
M  V30 BEGIN CTAB
M  V30 COUNTS 9 9 0 0 0
M  V30 BEGIN ATOM
M  V30 1 O 0.0 0.0 0.0 0
M  V30 2 C -0.0474 -1.4945 0.0 0
M  V30 3 C 1.2454 -2.1943 0.0 0
M  V30 4 C 1.1979 -3.6888 0.0 0
M  V30 5 C 2.4908 -4.3886 0.0 0
M  V30 6 C -0.1897 -4.3886 0.0 0
M  V30 7 C 2.4434 -5.8832 0.0 0
M  V30 8 C -0.2372 -5.8832 0.0 0
M  V30 9 C 1.0556 -6.583 0.0 0
M  V30 END ATOM
M  V30 BEGIN BOND
M  V30 1 2 1 2
M  V30 2 1 2 3
M  V30 3 1 3 4
M  V30 4 2 4 5
M  V30 5 1 4 6
M  V30 6 1 5 7
M  V30 7 2 6 8
M  V30 8 2 7 9
M  V30 9 1 8 9
M  V30 END BOND
M  V30 END CTAB
M  END
>  <Molecule Name>
phenyl acetaldehyde

>  <Molecule Name 2>
phenyl acetaldehyde

>  <Database>
Essential Oil Database

>  <InChI>
InChI=1S/C8H8O/c9-7-6-8-4-2-1-3-5-8/h1-5,7H,6H2

>  <InChI-Key>
DTUQWGWMVIHBKE-UHFFFAOYSA-N

>  <Smiles>
O=CCc1ccccc1

>  <Molecular Formula>
C8H8O

$$$$
p-mentha-1,3-dien-7-al
Actelion Java MolfileCreator 2.0

  0  0  0  0  0  0              0 V3000
M  V30 BEGIN CTAB
M  V30 COUNTS 11 11 0 0 0
M  V30 BEGIN ATOM
M  V30 1 O 0.0 0.0 0.0 0
M  V30 2 C 1.2901 -0.6983 0.0 0
M  V30 3 C 1.2427 -2.1896 0.0 0
M  V30 4 C -0.142 -2.8879 0.0 0
M  V30 5 C 2.5328 -2.8879 0.0 0
M  V30 6 C -0.1893 -4.3792 0.0 0
M  V30 7 C 2.4855 -4.3792 0.0 0
M  V30 8 C 1.1007 -5.0776 0.0 0
M  V30 9 C 1.0533 -6.5689 0.0 0
M  V30 10 C -0.3314 -7.279 0.0 0
M  V30 11 C 2.3435 -7.279 0.0 0
M  V30 END ATOM
M  V30 BEGIN BOND
M  V30 1 2 1 2
M  V30 2 1 2 3
M  V30 3 2 3 4
M  V30 4 1 3 5
M  V30 5 1 4 6
M  V30 6 1 5 7
M  V30 7 2 6 8
M  V30 8 1 8 9
M  V30 9 1 9 10
M  V30 10 1 9 11
M  V30 11 1 7 8
M  V30 END BOND
M  V30 END CTAB
M  END
>  <Molecule Name>
p-mentha-1,3-dien-7-al

>  <Molecule Name 2>
p-mentha-1,3-dien-7-al

>  <Database>
Essential Oil Database

>  <InChI>
InChI=1S/C10H14O/c1-8(2)10-5-3-9(7-11)4-6-10/h3,5,7-8H,4,6H2,1-2H3

>  <InChI-Key>
MKVBITWQDIIUMF-UHFFFAOYSA-N

>  <Smiles>
CC(C)C(CC1)=CC=C1C=O

>  <Molecular Formula>
C10H14O

$$$$
p-mentha-1,5-dien-7-ol
Actelion Java MolfileCreator 2.0

  0  0  0  0  0  0              0 V3000
M  V30 BEGIN CTAB
M  V30 COUNTS 11 11 0 0 0
M  V30 BEGIN ATOM
M  V30 1 O 0.0 0.0 0.0 0
M  V30 2 C 1.2901 -0.6983 0.0 0
M  V30 3 C 1.2427 -2.1896 0.0 0
M  V30 4 C 2.5328 -2.8879 0.0 0
M  V30 5 C -0.142 -2.8879 0.0 0
M  V30 6 C 2.4855 -4.3792 0.0 0
M  V30 7 C -0.1893 -4.3792 0.0 0
M  V30 8 C 1.1007 -5.0776 0.0 0 CFG=1
M  V30 9 C 1.0533 -6.5689 0.0 0
M  V30 10 C -0.3314 -7.279 0.0 0
M  V30 11 C 2.3435 -7.279 0.0 0
M  V30 END ATOM
M  V30 BEGIN BOND
M  V30 1 1 1 2
M  V30 2 1 2 3
M  V30 3 1 3 4
M  V30 4 2 3 5
M  V30 5 2 4 6
M  V30 6 1 5 7
M  V30 7 1 6 8
M  V30 8 1 8 9 CFG=3
M  V30 9 1 9 10
M  V30 10 1 9 11
M  V30 11 1 7 8
M  V30 END BOND
M  V30 BEGIN COLLECTION
M  V30 MDLV30/STERAC1 ATOMS=(1 8)
M  V30 END COLLECTION
M  V30 END CTAB
M  END
>  <Molecule Name>
p-mentha-1,5-dien-7-ol

>  <Molecule Name 2>
p-mentha-1,5-dien-7-ol

>  <Database>
Essential Oil Database

>  <InChI>
InChI=1S/C10H16O/c1-8(2)10-5-3-9(7-11)4-6-10/h3-5,8,10-11H,6-7H2,1-2H3/t10-/m0/s1

>  <InChI-Key>
QPHLFYOPLZARDQ-JTQLQIEISA-N

>  <Smiles>
CC(C)C1C=CC(CO)=CC1

>  <Molecular Formula>
C10H16O

$$$$
propylbenzene
Actelion Java MolfileCreator 2.0

  0  0  0  0  0  0              0 V3000
M  V30 BEGIN CTAB
M  V30 COUNTS 9 9 0 0 0
M  V30 BEGIN ATOM
M  V30 1 C 0.0 0.0 0.0 0
M  V30 2 C 1.2562 -0.7195 0.0 0
M  V30 3 C -1.3538 -0.7195 0.0 0
M  V30 4 C -0.0487 1.5611 0.0 0
M  V30 5 C 1.2074 -2.1831 0.0 0
M  V30 6 C -1.4026 -2.1831 0.0 0
M  V30 7 C 1.2074 2.3539 0.0 0
M  V30 8 C -0.1463 -2.9027 0.0 0
M  V30 9 C 1.1586 3.9151 0.0 0
M  V30 END ATOM
M  V30 BEGIN BOND
M  V30 1 2 1 2
M  V30 2 1 1 3
M  V30 3 1 1 4
M  V30 4 1 2 5
M  V30 5 2 3 6
M  V30 6 1 4 7
M  V30 7 2 5 8
M  V30 8 1 7 9
M  V30 9 1 6 8
M  V30 END BOND
M  V30 END CTAB
M  END
>  <Molecule Name>
propylbenzene

>  <Molecule Name 2>
propylbenzene

>  <Database>
Essential Oil Database

>  <InChI>
InChI=1S/C9H12/c1-2-6-9-7-4-3-5-8-9/h3-5,7-8H,2,6H2,1H3

>  <InChI-Key>
ODLMAHJVESYWTB-UHFFFAOYSA-N

>  <Smiles>
CCCc1ccccc1

>  <Molecular Formula>
C9H12

$$$$
suberosin
Actelion Java MolfileCreator 2.0

  0  0  0  0  0  0              0 V3000
M  V30 BEGIN CTAB
M  V30 COUNTS 18 19 0 0 0
M  V30 BEGIN ATOM
M  V30 1 O 0.0 0.0 0.0 0
M  V30 2 C -1.3161 0.7588 0.0 0
M  V30 3 O -2.6323 0.0474 0.0 0
M  V30 4 C -1.3635 2.2766 0.0 0
M  V30 5 C -3.9484 0.8181 0.0 0
M  V30 6 C -2.6797 3.0473 0.0 0
M  V30 7 C -3.9959 2.3358 0.0 0
M  V30 8 C -5.2646 0.1067 0.0 0
M  V30 9 C -5.312 3.1066 0.0 0
M  V30 10 C -6.5808 0.8774 0.0 0
M  V30 11 C -6.6282 2.407 0.0 0
M  V30 12 O -7.8969 0.166 0.0 0
M  V30 13 C -7.9444 3.1777 0.0 0
M  V30 14 C -7.9444 -1.2568 0.0 0
M  V30 15 C -7.9918 4.6954 0.0 0
M  V30 16 C -6.7705 5.4662 0.0 0
M  V30 17 C -6.8179 6.9839 0.0 0
M  V30 18 C -5.5492 4.7666 0.0 0
M  V30 END ATOM
M  V30 BEGIN BOND
M  V30 1 2 1 2
M  V30 2 1 2 3
M  V30 3 1 2 4
M  V30 4 1 3 5
M  V30 5 2 4 6
M  V30 6 2 5 7
M  V30 7 1 5 8
M  V30 8 1 7 9
M  V30 9 2 8 10
M  V30 10 2 9 11
M  V30 11 1 10 12
M  V30 12 1 11 13
M  V30 13 1 12 14
M  V30 14 1 13 15
M  V30 15 2 15 16
M  V30 16 1 16 17
M  V30 17 1 16 18
M  V30 18 1 6 7
M  V30 19 1 10 11
M  V30 END BOND
M  V30 END CTAB
M  END
>  <Molecule Name>
suberosin

>  <Molecule Name 2>
suberosin

>  <Database>
Essential Oil Database

>  <InChI>
InChI=1S/C15H16O3/c1-10(2)4-5-11-8-12-6-7-15(16)18-14(12)9-13(11)17-3/h4,6-9H,5H2,1-3H3

>  <InChI-Key>
RSZDAYHEZSRVHS-UHFFFAOYSA-N

>  <Smiles>
CC(C)=CCc(c(OC)c1)cc(C=C2)c1OC2=O

>  <Molecular Formula>
C15H16O3

$$$$
tridecanol
Actelion Java MolfileCreator 2.0

  0  0  0  0  0  0              0 V3000
M  V30 BEGIN CTAB
M  V30 COUNTS 14 13 0 0 0
M  V30 BEGIN ATOM
M  V30 1 O 0.0 0.0 0.0 0
M  V30 2 C 1.2827 0.8144 0.0 0
M  V30 3 C 2.5654 0.0814 0.0 0
M  V30 4 C 3.8481 0.8958 0.0 0
M  V30 5 C 5.1308 0.1628 0.0 0
M  V30 6 C 6.4135 0.9772 0.0 0
M  V30 7 C 7.6962 0.2443 0.0 0
M  V30 8 C 8.9789 1.0587 0.0 0
M  V30 9 C 10.2616 0.3257 0.0 0
M  V30 10 C 11.5443 1.1401 0.0 0
M  V30 11 C 12.827 0.4072 0.0 0
M  V30 12 C 14.1097 1.2216 0.0 0
M  V30 13 C 15.3924 0.4886 0.0 0
M  V30 14 C 16.6751 1.303 0.0 0
M  V30 END ATOM
M  V30 BEGIN BOND
M  V30 1 1 1 2
M  V30 2 1 2 3
M  V30 3 1 3 4
M  V30 4 1 4 5
M  V30 5 1 5 6
M  V30 6 1 6 7
M  V30 7 1 7 8
M  V30 8 1 8 9
M  V30 9 1 9 10
M  V30 10 1 10 11
M  V30 11 1 11 12
M  V30 12 1 12 13
M  V30 13 1 13 14
M  V30 END BOND
M  V30 END CTAB
M  END
>  <Molecule Name>
tridecanol

>  <Molecule Name 2>
tridecanol

>  <Database>
Essential Oil Database

>  <InChI>
InChI=1S/C13H28O/c1-2-3-4-5-6-7-8-9-10-11-12-13-14/h14H,2-13H2,1H3

>  <InChI-Key>
XFRVVPUIAFSTFO-UHFFFAOYSA-N

>  <Smiles>
CCCCCCCCCCCCCO

>  <Molecular Formula>
C13H28O

$$$$
(z)-2-methyl-3-octen-5-yne
Actelion Java MolfileCreator 2.0

  0  0  0  0  0  0              0 V3000
M  V30 BEGIN CTAB
M  V30 COUNTS 9 8 0 0 0
M  V30 BEGIN ATOM
M  V30 1 C 0.0 0.0 0.0 0
M  V30 2 C -1.5574 0.0486 0.0 0
M  V30 3 C 1.46 0.0486 0.0 0
M  V30 4 C -3.1148 0.0973 0.0 0
M  V30 5 C 2.1901 -1.2045 0.0 0
M  V30 6 C -3.9057 -1.1558 0.0 0
M  V30 7 C 1.3992 -2.4578 0.0 0
M  V30 8 C 2.1292 -3.711 0.0 0
M  V30 9 C -0.1581 -2.4091 0.0 0
M  V30 END ATOM
M  V30 BEGIN BOND
M  V30 1 3 1 2
M  V30 2 1 1 3
M  V30 3 1 2 4
M  V30 4 2 3 5
M  V30 5 1 4 6
M  V30 6 1 5 7
M  V30 7 1 7 8
M  V30 8 1 7 9
M  V30 END BOND
M  V30 END CTAB
M  END
>  <Molecule Name>
(z)-2-methyl-3-octen-5-yne

>  <Molecule Name 2>
(z)-2-methyl-3-octen-5-yne

>  <Database>
Essential Oil Database

>  <InChI>
InChI=1S/C9H14/c1-4-5-6-7-8-9(2)3/h7-9H,4H2,1-3H3/b8-7-

>  <InChI-Key>
MJQSRVNSUGZDMW-FPLPWBNLSA-N

>  <Smiles>
CCC#C/C=C\C(C)C

>  <Molecular Formula>
C9H14

$$$$
2-acetylfuran
Actelion Java MolfileCreator 2.0

  0  0  0  0  0  0              0 V3000
M  V30 BEGIN CTAB
M  V30 COUNTS 8 8 0 0 0
M  V30 BEGIN ATOM
M  V30 1 O 0.0 0.0 0.0 0
M  V30 2 C 1.2753 -0.702 0.0 0
M  V30 3 C 1.2285 -2.1762 0.0 0
M  V30 4 C 2.5506 0.1287 0.0 0
M  V30 5 O -0.0585 -3.042 0.0 0
M  V30 6 C 2.4219 -3.042 0.0 0
M  V30 7 C 0.351 -4.446 0.0 0
M  V30 8 C 1.9188 -4.446 0.0 0
M  V30 END ATOM
M  V30 BEGIN BOND
M  V30 1 2 1 2
M  V30 2 1 2 3
M  V30 3 1 2 4
M  V30 4 1 3 5
M  V30 5 2 3 6
M  V30 6 1 5 7
M  V30 7 1 6 8
M  V30 8 2 7 8
M  V30 END BOND
M  V30 END CTAB
M  END
>  <Molecule Name>
2-acetylfuran

>  <Molecule Name 2>
2-acetylfuran

>  <Database>
Essential Oil Database

>  <InChI>
InChI=1S/C6H6O2/c1-5(7)6-3-2-4-8-6/h2-4H,1H3

>  <InChI-Key>
IEMMBWWQXVXBEU-UHFFFAOYSA-N

>  <Smiles>
CC(c1ccc[o]1)=O

>  <Molecular Formula>
C6H6O2

$$$$
4-methylpentylisovalerate
Actelion Java MolfileCreator 2.0

  0  0  0  0  0  0              0 V3000
M  V30 BEGIN CTAB
M  V30 COUNTS 13 12 0 0 0
M  V30 BEGIN ATOM
M  V30 1 O 0.0 0.0 0.0 0
M  V30 2 C -0.0488 -1.4651 0.0 0
M  V30 3 O 1.2087 -2.1976 0.0 0
M  V30 4 C -1.404 -2.1976 0.0 0
M  V30 5 C 2.4662 -1.3918 0.0 0
M  V30 6 C -2.7592 -1.3918 0.0 0
M  V30 7 C 3.7238 -2.1244 0.0 0
M  V30 8 C -4.1145 -2.1244 0.0 0
M  V30 9 C -2.8081 0.1709 0.0 0
M  V30 10 C 4.9813 -1.3185 0.0 0
M  V30 11 C 6.2389 -2.0511 0.0 0
M  V30 12 C 7.4964 -1.2453 0.0 0
M  V30 13 C 6.19 -3.5162 0.0 0
M  V30 END ATOM
M  V30 BEGIN BOND
M  V30 1 2 1 2
M  V30 2 1 2 3
M  V30 3 1 2 4
M  V30 4 1 3 5
M  V30 5 1 4 6
M  V30 6 1 5 7
M  V30 7 1 6 8
M  V30 8 1 6 9
M  V30 9 1 7 10
M  V30 10 1 10 11
M  V30 11 1 11 12
M  V30 12 1 11 13
M  V30 END BOND
M  V30 END CTAB
M  END
>  <Molecule Name>
4-methylpentylisovalerate

>  <Molecule Name 2>
4-methylpentylisovalerate

>  <Database>
Essential Oil Database

>  <InChI>
InChI=1S/C11H22O2/c1-9(2)6-5-7-13-11(12)8-10(3)4/h9-10H,5-8H2,1-4H3

>  <InChI-Key>
UBSHDOVFGRHFJF-UHFFFAOYSA-N

>  <Smiles>
CC(C)CCCOC(CC(C)C)=O

>  <Molecular Formula>
C11H22O2

$$$$
6,7-epoxymyrcene
Actelion Java MolfileCreator 2.0

  0  0  0  0  0  0              0 V3000
M  V30 BEGIN CTAB
M  V30 COUNTS 11 11 0 0 0
M  V30 BEGIN ATOM
M  V30 1 O 0.0 0.0 0.0 0
M  V30 2 C -0.7747 1.3437 0.0 0
M  V30 3 C 0.7142 1.3437 0.0 0 CFG=2
M  V30 4 C -1.0894 2.869 0.0 0
M  V30 5 C -2.2274 0.8715 0.0 0
M  V30 6 C 1.961 2.1305 0.0 0
M  V30 7 C 3.2079 1.4042 0.0 0
M  V30 8 C 4.4548 2.191 0.0 0
M  V30 9 C 5.7016 1.4768 0.0 0
M  V30 10 C 4.4063 3.7405 0.0 0
M  V30 11 C 6.9485 2.2637 0.0 0
M  V30 END ATOM
M  V30 BEGIN BOND
M  V30 1 1 1 2
M  V30 2 1 1 3
M  V30 3 1 2 4
M  V30 4 1 2 5
M  V30 5 1 3 6 CFG=3
M  V30 6 1 6 7
M  V30 7 1 7 8
M  V30 8 1 8 9
M  V30 9 2 8 10
M  V30 10 2 9 11
M  V30 11 1 2 3
M  V30 END BOND
M  V30 BEGIN COLLECTION
M  V30 MDLV30/STERAC1 ATOMS=(1 3)
M  V30 END COLLECTION
M  V30 END CTAB
M  END
>  <Molecule Name>
6,7-epoxymyrcene

>  <Molecule Name 2>
6,7-epoxymyrcene

>  <Database>
Essential Oil Database

>  <InChI>
InChI=1S/C10H16O/c1-5-8(2)6-7-9-10(3,4)11-9/h5,9H,1-2,6-7H2,3-4H3/t9-/m0/s1

>  <InChI-Key>
DQGZGGZXMOFHLB-VIFPVBQESA-N

>  <Smiles>
CC1(C)OC1CCC(C=C)=C

>  <Molecular Formula>
C10H16O

$$$$
beta-chamigrene
Actelion Java MolfileCreator 2.0

  0  0  0  0  0  0              0 V3000
M  V30 BEGIN CTAB
M  V30 COUNTS 15 16 0 0 0
M  V30 BEGIN ATOM
M  V30 1 C 0.0 0.0 0.0 0
M  V30 2 C -0.7879 1.3454 0.0 0
M  V30 3 C -0.7879 -1.2485 0.0 0 CFG=2
M  V30 4 C 1.4545 0.0484 0.0 0
M  V30 5 C -0.0606 -2.497 0.0 0
M  V30 6 C -1.5758 0.0969 0.0 0
M  V30 7 C -1.5758 -2.497 0.0 0
M  V30 8 C 2.1818 -1.2 0.0 0
M  V30 9 C 1.3939 -2.4485 0.0 0
M  V30 10 C -0.1575 -3.9516 0.0 0
M  V30 11 C -1.3818 -3.2364 0.0 0
M  V30 12 C -3.1273 0.1454 0.0 0
M  V30 13 C -3.1273 -2.4485 0.0 0
M  V30 14 C -3.9031 -1.103 0.0 0
M  V30 15 C -5.4547 -1.0545 0.0 0
M  V30 END ATOM
M  V30 BEGIN BOND
M  V30 1 2 1 2
M  V30 2 1 1 3
M  V30 3 1 1 4
M  V30 4 1 3 5 CFG=3
M  V30 5 1 3 6
M  V30 6 1 3 7
M  V30 7 1 4 8
M  V30 8 1 5 9
M  V30 9 1 5 10
M  V30 10 1 5 11
M  V30 11 1 6 12
M  V30 12 1 7 13
M  V30 13 2 12 14
M  V30 14 1 14 15
M  V30 15 1 8 9
M  V30 16 1 13 14
M  V30 END BOND
M  V30 BEGIN COLLECTION
M  V30 MDLV30/STERAC1 ATOMS=(1 3)
M  V30 END COLLECTION
M  V30 END CTAB
M  END
>  <Molecule Name>
beta-chamigrene

>  <Molecule Name 2>
beta-chamigrene

>  <Database>
Essential Oil Database

>  <InChI>
InChI=1S/C15H24/c1-12-7-10-15(11-8-12)13(2)6-5-9-14(15,3)4/h7H,2,5-6,8-11H2,1,3-4H3/t15-/m0/s1

>  <InChI-Key>
WLNGPDPILFYWKF-HNNXBMFYSA-N

>  <Smiles>
CC(C)(CCC1)C2(CC=C(C)CC2)C1=C

>  <Molecular Formula>
C15H24

$$$$
cuparene
Actelion Java MolfileCreator 2.0

  0  0  0  0  0  0              0 V3000
M  V30 BEGIN CTAB
M  V30 COUNTS 15 16 0 0 0
M  V30 BEGIN ATOM
M  V30 1 C 0.0 0.0 0.0 0
M  V30 2 C 1.4275 -0.2736 0.0 0
M  V30 3 C -0.5234 1.475 0.0 0
M  V30 4 C -1.0468 -1.0587 0.0 0 CFG=1
M  V30 5 C 2.3791 0.8803 0.0 0
M  V30 6 C 0.4282 2.629 0.0 0
M  V30 7 C -2.3078 -1.8795 0.0 0
M  V30 8 C 0.1189 -1.8795 0.0 0
M  V30 9 C -2.0936 0.0951 0.0 0
M  V30 10 C 1.8557 2.3554 0.0 0
M  V30 11 C -1.8795 -3.2594 0.0 0
M  V30 12 C -3.8305 -2.1412 0.0 0
M  V30 13 C -3.3665 -0.7375 0.0 0
M  V30 14 C -0.4044 -3.2594 0.0 0
M  V30 15 C 2.8074 3.5093 0.0 0
M  V30 END ATOM
M  V30 BEGIN BOND
M  V30 1 2 1 2
M  V30 2 1 1 3
M  V30 3 1 1 4
M  V30 4 1 2 5
M  V30 5 2 3 6
M  V30 6 1 4 7
M  V30 7 1 4 8
M  V30 8 1 4 9 CFG=1
M  V30 9 2 5 10
M  V30 10 1 7 11
M  V30 11 1 7 12
M  V30 12 1 7 13
M  V30 13 1 8 14
M  V30 14 1 10 15
M  V30 15 1 6 10
M  V30 16 1 11 14
M  V30 END BOND
M  V30 BEGIN COLLECTION
M  V30 MDLV30/STEABS ATOMS=(1 4)
M  V30 END COLLECTION
M  V30 END CTAB
M  END
>  <Molecule Name>
cuparene

>  <Molecule Name 2>
cuparene

>  <Database>
Essential Oil Database

>  <InChI>
InChI=1S/C15H22/c1-12-6-8-13(9-7-12)15(4)11-5-10-14(15,2)3/h6-9H,5,10-11H2,1-4H3/t15-/m0/s1

>  <InChI-Key>
SLKPBCXNFNIJSV-HNNXBMFYSA-N

>  <Smiles>
CC(C)(CCC1)[C@]1(C)c1ccc(C)cc1

>  <Molecular Formula>
C15H22

$$$$
dodecyl acetate
Actelion Java MolfileCreator 2.0

  0  0  0  0  0  0              0 V3000
M  V30 BEGIN CTAB
M  V30 COUNTS 16 15 0 0 0
M  V30 BEGIN ATOM
M  V30 1 O 0.0 0.0 0.0 0
M  V30 2 C 1.2896 -0.7099 0.0 0
M  V30 3 O 2.5793 0.1064 0.0 0
M  V30 4 C 1.2423 -2.2007 0.0 0
M  V30 5 C 3.8689 -0.6034 0.0 0
M  V30 6 C 5.1586 0.2129 0.0 0
M  V30 7 C 6.4483 -0.4969 0.0 0
M  V30 8 C 7.7379 0.3194 0.0 0
M  V30 9 C 9.0276 -0.3904 0.0 0
M  V30 10 C 10.3172 0.4259 0.0 0
M  V30 11 C 11.6069 -0.2839 0.0 0
M  V30 12 C 12.8966 0.5442 0.0 0
M  V30 13 C 14.1862 -0.1656 0.0 0
M  V30 14 C 15.4759 0.6625 0.0 0
M  V30 15 C 16.7655 -0.0473 0.0 0
M  V30 16 C 18.0552 0.7808 0.0 0
M  V30 END ATOM
M  V30 BEGIN BOND
M  V30 1 2 1 2
M  V30 2 1 2 3
M  V30 3 1 2 4
M  V30 4 1 3 5
M  V30 5 1 5 6
M  V30 6 1 6 7
M  V30 7 1 7 8
M  V30 8 1 8 9
M  V30 9 1 9 10
M  V30 10 1 10 11
M  V30 11 1 11 12
M  V30 12 1 12 13
M  V30 13 1 13 14
M  V30 14 1 14 15
M  V30 15 1 15 16
M  V30 END BOND
M  V30 END CTAB
M  END
>  <Molecule Name>
dodecyl acetate

>  <Molecule Name 2>
dodecyl acetate

>  <Database>
Essential Oil Database

>  <InChI>
InChI=1S/C14H28O2/c1-3-4-5-6-7-8-9-10-11-12-13-16-14(2)15/h3-13H2,1-2H3

>  <InChI-Key>
VZWGRQBCURJOMT-UHFFFAOYSA-N

>  <Smiles>
CCCCCCCCCCCCOC(C)=O

>  <Molecular Formula>
C14H28O2

$$$$
(e)-2-hexenal
Actelion Java MolfileCreator 2.0

  0  0  0  0  0  0              0 V3000
M  V30 BEGIN CTAB
M  V30 COUNTS 7 6 0 0 0
M  V30 BEGIN ATOM
M  V30 1 O 0.0 0.0 0.0 0
M  V30 2 C 0.7178 -1.2532 0.0 0
M  V30 3 C -0.0608 -2.5064 0.0 0
M  V30 4 C -1.6182 -2.4578 0.0 0
M  V30 5 C -2.4091 -3.711 0.0 0
M  V30 6 C -3.9665 -3.6623 0.0 0
M  V30 7 C -4.7574 -4.9156 0.0 0
M  V30 END ATOM
M  V30 BEGIN BOND
M  V30 1 2 1 2
M  V30 2 1 2 3
M  V30 3 2 3 4
M  V30 4 1 4 5
M  V30 5 1 5 6
M  V30 6 1 6 7
M  V30 END BOND
M  V30 END CTAB
M  END
>  <Molecule Name>
(e)-2-hexenal

>  <Molecule Name 2>
(e)-2-hexenal

>  <Database>
Essential Oil Database

>  <InChI>
InChI=1S/C6H10O/c1-2-3-4-5-6-7/h4-6H,2-3H2,1H3/b5-4+

>  <InChI-Key>
MBDOYVRWFFCFHM-SNAWJCMRSA-N

>  <Smiles>
CCC/C=C/C=O

>  <Molecular Formula>
C6H10O

$$$$
(e,e)-2,4-hexadienal
Actelion Java MolfileCreator 2.0

  0  0  0  0  0  0              0 V3000
M  V30 BEGIN CTAB
M  V30 COUNTS 7 6 0 0 0
M  V30 BEGIN ATOM
M  V30 1 O 0.0 0.0 0.0 0
M  V30 2 C 0.7178 -1.2532 0.0 0
M  V30 3 C -0.0608 -2.5064 0.0 0
M  V30 4 C -1.6182 -2.4578 0.0 0
M  V30 5 C -2.4091 -3.711 0.0 0
M  V30 6 C -3.9665 -3.6623 0.0 0
M  V30 7 C -4.7574 -4.9156 0.0 0
M  V30 END ATOM
M  V30 BEGIN BOND
M  V30 1 2 1 2
M  V30 2 1 2 3
M  V30 3 2 3 4
M  V30 4 1 4 5
M  V30 5 2 5 6
M  V30 6 1 6 7
M  V30 END BOND
M  V30 END CTAB
M  END
>  <Molecule Name>
(e,e)-2,4-hexadienal

>  <Molecule Name 2>
(e,e)-2,4-hexadienal

>  <Database>
Essential Oil Database

>  <InChI>
InChI=1S/C6H8O/c1-2-3-4-5-6-7/h2-6H,1H3/b3-2+,5-4+

>  <InChI-Key>
BATOPAZDIZEVQF-MQQKCMAXSA-N

>  <Smiles>
C/C=C/C=C/C=O

>  <Molecular Formula>
C6H8O

$$$$
indole
Actelion Java MolfileCreator 2.0

  0  0  0  0  0  0              0 V3000
M  V30 BEGIN CTAB
M  V30 COUNTS 9 10 0 0 0
M  V30 BEGIN ATOM
M  V30 1 N 0.0 0.0 0.0 0
M  V30 2 C 1.3844 0.5221 0.0 0
M  V30 3 C -0.9229 1.2629 0.0 0
M  V30 4 C 1.3358 2.0766 0.0 0
M  V30 5 C 2.6352 -0.1943 0.0 0
M  V30 6 C -0.0971 2.5259 0.0 0
M  V30 7 C 2.5866 2.8659 0.0 0
M  V30 8 C 3.886 0.595 0.0 0
M  V30 9 C 3.8374 2.1373 0.0 0
M  V30 END ATOM
M  V30 BEGIN BOND
M  V30 1 1 1 2
M  V30 2 1 1 3
M  V30 3 2 2 4
M  V30 4 1 2 5
M  V30 5 2 3 6
M  V30 6 1 4 7
M  V30 7 2 5 8
M  V30 8 2 7 9
M  V30 9 1 4 6
M  V30 10 1 8 9
M  V30 END BOND
M  V30 END CTAB
M  END
>  <Molecule Name>
indole

>  <Molecule Name 2>
indole

>  <Database>
Essential Oil Database

>  <InChI>
InChI=1S/C8H7N/c1-2-4-8-7(3-1)5-6-9-8/h1-6,9H

>  <InChI-Key>
SIKJAQJRHWYJAI-UHFFFAOYSA-N

>  <Smiles>
c1c[nH]c2c1cccc2

>  <Molecular Formula>
C8H7N

$$$$
p-mentha-3,8-diene
Actelion Java MolfileCreator 2.0

  0  0  0  0  0  0              0 V3000
M  V30 BEGIN CTAB
M  V30 COUNTS 10 10 0 0 0
M  V30 BEGIN ATOM
M  V30 1 C 0.0 0.0 0.0 0
M  V30 2 C -0.048 -1.4406 0.0 0
M  V30 3 C -1.3325 0.7683 0.0 0
M  V30 4 C 1.2365 0.7683 0.0 0
M  V30 5 C 1.1885 -2.1609 0.0 0
M  V30 6 C -1.3806 -2.1609 0.0 0
M  V30 7 C -1.3806 2.305 0.0 0
M  V30 8 C 1.1885 2.305 0.0 0
M  V30 9 C -0.144 3.0853 0.0 0 CFG=2
M  V30 10 C -0.192 4.622 0.0 0
M  V30 END ATOM
M  V30 BEGIN BOND
M  V30 1 1 1 2
M  V30 2 2 1 3
M  V30 3 1 1 4
M  V30 4 2 2 5
M  V30 5 1 2 6
M  V30 6 1 3 7
M  V30 7 1 4 8
M  V30 8 1 7 9
M  V30 9 1 9 10 CFG=1
M  V30 10 1 8 9
M  V30 END BOND
M  V30 BEGIN COLLECTION
M  V30 MDLV30/STERAC1 ATOMS=(1 9)
M  V30 END COLLECTION
M  V30 END CTAB
M  END
>  <Molecule Name>
p-mentha-3,8-diene

>  <Molecule Name 2>
p-mentha-3,8-diene

>  <Database>
Essential Oil Database

>  <InChI>
InChI=1S/C10H16/c1-8(2)10-6-4-9(3)5-7-10/h6,9H,1,4-5,7H2,2-3H3/t9-/m1/s1

>  <InChI-Key>
AJSJXSBFZDIRIS-SECBINFHSA-N

>  <Smiles>
CC(CC1)CC=C1C(C)=C

>  <Molecular Formula>
C10H16

$$$$
(z)-3-hexenyl acetate
Actelion Java MolfileCreator 2.0

  0  0  0  0  0  0              0 V3000
M  V30 BEGIN CTAB
M  V30 COUNTS 10 9 0 0 0
M  V30 BEGIN ATOM
M  V30 1 O 0.0 0.0 0.0 0
M  V30 2 C 1.2758 -0.7308 0.0 0
M  V30 3 O 2.5517 0.0619 0.0 0
M  V30 4 C 1.2263 -2.2173 0.0 0
M  V30 5 C 3.8276 -0.6689 0.0 0
M  V30 6 C 5.1035 0.1238 0.0 0
M  V30 7 C 6.3794 -0.6069 0.0 0
M  V30 8 C 7.6553 0.1858 0.0 0
M  V30 9 C 7.6058 1.7713 0.0 0
M  V30 10 C 8.8817 2.5765 0.0 0
M  V30 END ATOM
M  V30 BEGIN BOND
M  V30 1 2 1 2
M  V30 2 1 2 3
M  V30 3 1 2 4
M  V30 4 1 3 5
M  V30 5 1 5 6
M  V30 6 1 6 7
M  V30 7 2 7 8
M  V30 8 1 8 9
M  V30 9 1 9 10
M  V30 END BOND
M  V30 END CTAB
M  END
>  <Molecule Name>
(z)-3-hexenyl acetate

>  <Molecule Name 2>
(z)-3-hexenyl acetate

>  <Database>
Essential Oil Database

>  <InChI>
InChI=1S/C8H14O2/c1-3-4-5-6-7-10-8(2)9/h4-5H,3,6-7H2,1-2H3/b5-4-

>  <InChI-Key>
NPFVOOAXDOBMCE-PLNGDYQASA-N

>  <Smiles>
CC/C=C\CCOC(C)=O

>  <Molecular Formula>
C8H14O2

$$$$
2,7-dimethyl-2,6-octadiene
Actelion Java MolfileCreator 2.0

  0  0  0  0  0  0              0 V3000
M  V30 BEGIN CTAB
M  V30 COUNTS 10 9 0 0 0
M  V30 BEGIN ATOM
M  V30 1 C 0.0 0.0 0.0 0
M  V30 2 C -1.5379 0.048 0.0 0
M  V30 3 C 0.7209 1.3336 0.0 0
M  V30 4 C 0.7209 -1.2375 0.0 0
M  V30 5 C -2.3189 -1.1894 0.0 0
M  V30 6 C -3.8568 -1.1414 0.0 0
M  V30 7 C -4.6378 -2.3789 0.0 0
M  V30 8 C -6.1757 -2.3309 0.0 0
M  V30 9 C -6.9567 -3.5684 0.0 0
M  V30 10 C -6.9567 -0.9972 0.0 0
M  V30 END ATOM
M  V30 BEGIN BOND
M  V30 1 2 1 2
M  V30 2 1 1 3
M  V30 3 1 1 4
M  V30 4 1 2 5
M  V30 5 1 5 6
M  V30 6 1 6 7
M  V30 7 2 7 8
M  V30 8 1 8 9
M  V30 9 1 8 10
M  V30 END BOND
M  V30 END CTAB
M  END
>  <Molecule Name>
2,7-dimethyl-2,6-octadiene

>  <Molecule Name 2>
2,7-dimethyl-2,6-octadiene

>  <Database>
Essential Oil Database

>  <InChI>
InChI=1S/C10H18/c1-9(2)7-5-6-8-10(3)4/h7-8H,5-6H2,1-4H3

>  <InChI-Key>
PSOPUECGKNQIPH-UHFFFAOYSA-N

>  <Smiles>
CC(C)=CCCC=C(C)C

>  <Molecular Formula>
C10H18

$$$$
5-methylhexyl-2-methylbutyrate
Actelion Java MolfileCreator 2.0

  0  0  0  0  0  0              0 V3000
M  V30 BEGIN CTAB
M  V30 COUNTS 14 13 0 0 0
M  V30 BEGIN ATOM
M  V30 1 O 0.0 0.0 0.0 0
M  V30 2 C -0.0486 1.5557 0.0 0
M  V30 3 O 1.2032 2.3457 0.0 0
M  V30 4 C -1.3977 2.3457 0.0 0 CFG=2
M  V30 5 C 2.455 1.6164 0.0 0
M  V30 6 C -2.7467 1.6164 0.0 0
M  V30 7 C -1.4463 3.9014 0.0 0
M  V30 8 C 3.7069 2.4064 0.0 0
M  V30 9 C -4.0958 2.4064 0.0 0
M  V30 10 C 4.9588 1.6772 0.0 0
M  V30 11 C 6.2106 2.4672 0.0 0
M  V30 12 C 7.4625 1.738 0.0 0
M  V30 13 C 8.7143 2.528 0.0 0
M  V30 14 C 7.4139 0.2795 0.0 0
M  V30 END ATOM
M  V30 BEGIN BOND
M  V30 1 2 1 2
M  V30 2 1 2 3
M  V30 3 1 2 4
M  V30 4 1 3 5
M  V30 5 1 4 6
M  V30 6 1 4 7 CFG=3
M  V30 7 1 5 8
M  V30 8 1 6 9
M  V30 9 1 8 10
M  V30 10 1 10 11
M  V30 11 1 11 12
M  V30 12 1 12 13
M  V30 13 1 12 14
M  V30 END BOND
M  V30 BEGIN COLLECTION
M  V30 MDLV30/STERAC1 ATOMS=(1 4)
M  V30 END COLLECTION
M  V30 END CTAB
M  END
>  <Molecule Name>
5-methylhexyl-2-methylbutyrate

>  <Molecule Name 2>
5-methylhexyl-2-methylbutyrate

>  <Database>
Essential Oil Database

>  <InChI>
InChI=1S/C12H24O2/c1-5-11(4)12(13)14-9-7-6-8-10(2)3/h10-11H,5-9H2,1-4H3/t11-/m0/s1

>  <InChI-Key>
NSALWSUXLYVZBR-NSHDSACASA-N

>  <Smiles>
CCC(C)C(OCCCCC(C)C)=O

>  <Molecular Formula>
C12H24O2

$$$$
alpha-aromadendrene
Actelion Java MolfileCreator 2.0

  0  0  0  0  0  0              0 V3000
M  V30 BEGIN CTAB
M  V30 COUNTS 15 17 0 0 0
M  V30 BEGIN ATOM
M  V30 1 C 0.0 0.0 0.0 0
M  V30 2 C 1.0237 1.0968 0.0 0
M  V30 3 C 0.4509 -1.3771 0.0 0 CFG=1
M  V30 4 C -1.4746 0.5727 0.0 0
M  V30 5 C -0.4021 -2.5958 0.0 0
M  V30 6 C 1.8646 -1.7183 0.0 0
M  V30 7 C -2.803 -0.1706 0.0 0
M  V30 8 C 0.4996 -3.7049 0.0 0 CFG=1
M  V30 9 C -1.9621 -2.7055 0.0 0
M  V30 10 C 1.9133 -3.1808 0.0 0
M  V30 11 C -3.0346 -1.6208 0.0 0
M  V30 12 C 0.0609 -5.1186 0.0 0
M  V30 13 C -3.4733 -3.0467 0.0 0
M  V30 14 C -5.0089 -3.2539 0.0 0
M  V30 15 C -3.8023 -4.4848 0.0 0
M  V30 END ATOM
M  V30 BEGIN BOND
M  V30 1 2 1 2
M  V30 2 1 3 1 CFG=3
M  V30 3 1 1 4
M  V30 4 1 3 5
M  V30 5 1 3 6
M  V30 6 1 4 7
M  V30 7 1 5 8
M  V30 8 1 5 9
M  V30 9 1 6 10
M  V30 10 1 7 11
M  V30 11 1 8 12 CFG=1
M  V30 12 1 9 13
M  V30 13 1 13 14
M  V30 14 1 13 15
M  V30 15 1 8 10
M  V30 16 1 9 11
M  V30 17 1 11 13
M  V30 END BOND
M  V30 BEGIN COLLECTION
M  V30 MDLV30/STEABS ATOMS=(2 3 8)
M  V30 END COLLECTION
M  V30 END CTAB
M  END
>  <Molecule Name>
alpha-aromadendrene

>  <Molecule Name 2>
alpha-aromadendrene

>  <Database>
Essential Oil Database

>  <InChI>
InChI=1S/C15H24/c1-9-6-8-12-14(15(12,3)4)13-10(2)5-7-11(9)13/h10-14H,1,5-8H2,2-4H3/t10-,11+,12?,13?,14?/m1/s1

>  <InChI-Key>
ITYNGVSTWVVPIC-VFKLOAJASA-N

>  <Smiles>
C[C@H](CC1)C(C2C(C)(C)C2CC2)[C@@H]1C2=C

>  <Molecular Formula>
C15H24

$$$$
dihydroanethole
Actelion Java MolfileCreator 2.0

  0  0  0  0  0  0              0 V3000
M  V30 BEGIN CTAB
M  V30 COUNTS 11 11 0 0 0
M  V30 BEGIN ATOM
M  V30 1 O 0.0 0.0 0.0 0
M  V30 2 C -0.0475 1.5205 0.0 0
M  V30 3 C 1.2235 -0.7127 0.0 0
M  V30 4 C 1.176 2.2926 0.0 0
M  V30 5 C -1.366 2.2926 0.0 0
M  V30 6 C 1.1285 3.8131 0.0 0
M  V30 7 C -1.4136 3.8131 0.0 0
M  V30 8 C -0.19 4.5853 0.0 0
M  V30 9 C -0.2375 6.1058 0.0 0
M  V30 10 C -1.5561 6.8779 0.0 0
M  V30 11 C -1.6036 8.3985 0.0 0
M  V30 END ATOM
M  V30 BEGIN BOND
M  V30 1 1 1 2
M  V30 2 1 1 3
M  V30 3 2 2 4
M  V30 4 1 2 5
M  V30 5 1 4 6
M  V30 6 2 5 7
M  V30 7 2 6 8
M  V30 8 1 8 9
M  V30 9 1 9 10
M  V30 10 1 10 11
M  V30 11 1 7 8
M  V30 END BOND
M  V30 END CTAB
M  END
>  <Molecule Name>
dihydroanethole

>  <Molecule Name 2>
dihydroanethole

>  <Database>
Essential Oil Database

>  <InChI>
InChI=1S/C10H14O/c1-3-4-9-5-7-10(11-2)8-6-9/h5-8H,3-4H2,1-2H3

>  <InChI-Key>
KBHWKXNXTURZCD-UHFFFAOYSA-N

>  <Smiles>
CCCc(cc1)ccc1OC

>  <Molecular Formula>
C10H14O

$$$$
ethyl valerate
Actelion Java MolfileCreator 2.0

  0  0  0  0  0  0              0 V3000
M  V30 BEGIN CTAB
M  V30 COUNTS 9 8 0 0 0
M  V30 BEGIN ATOM
M  V30 1 O 0.0 0.0 0.0 0
M  V30 2 C -0.0479 1.5336 0.0 0
M  V30 3 O 1.1861 2.3124 0.0 0
M  V30 4 C -1.3779 2.3124 0.0 0
M  V30 5 C 2.4203 1.5935 0.0 0
M  V30 6 C -2.7078 1.5935 0.0 0
M  V30 7 C 3.6544 2.3843 0.0 0
M  V30 8 C -4.0378 2.3843 0.0 0
M  V30 9 C -5.3678 1.6654 0.0 0
M  V30 END ATOM
M  V30 BEGIN BOND
M  V30 1 2 1 2
M  V30 2 1 2 3
M  V30 3 1 2 4
M  V30 4 1 3 5
M  V30 5 1 4 6
M  V30 6 1 5 7
M  V30 7 1 6 8
M  V30 8 1 8 9
M  V30 END BOND
M  V30 END CTAB
M  END
>  <Molecule Name>
ethyl valerate

>  <Molecule Name 2>
ethyl valerate

>  <Database>
Essential Oil Database

>  <InChI>
InChI=1S/C7H14O2/c1-3-5-6-7(8)9-4-2/h3-6H2,1-2H3

>  <InChI-Key>
ICMAFTSLXCXHRK-UHFFFAOYSA-N

>  <Smiles>
CCCCC(OCC)=O

>  <Molecular Formula>
C7H14O2

$$$$
geranyl-2-methylbutyrate
Actelion Java MolfileCreator 2.0

  0  0  0  0  0  0              0 V3000
M  V30 BEGIN CTAB
M  V30 COUNTS 17 16 0 0 0
M  V30 BEGIN ATOM
M  V30 1 O 0.0 0.0 0.0 0
M  V30 2 C -0.0488 1.5629 0.0 0
M  V30 3 O 1.2088 2.3566 0.0 0
M  V30 4 C -1.4042 2.3566 0.0 0 CFG=2
M  V30 5 C 2.4665 1.624 0.0 0
M  V30 6 C -2.7596 1.624 0.0 0
M  V30 7 C -1.453 3.9196 0.0 0
M  V30 8 C 3.7242 2.4177 0.0 0
M  V30 9 C -4.115 2.4177 0.0 0
M  V30 10 C 4.9819 1.685 0.0 0
M  V30 11 C 6.2396 2.4787 0.0 0
M  V30 12 C 4.9331 0.2197 0.0 0
M  V30 13 C 7.4974 1.7461 0.0 0
M  V30 14 C 8.7551 2.5398 0.0 0
M  V30 15 C 10.0128 1.8071 0.0 0
M  V30 16 C 11.2705 2.6008 0.0 0
M  V30 17 C 9.9639 0.3419 0.0 0
M  V30 END ATOM
M  V30 BEGIN BOND
M  V30 1 2 1 2
M  V30 2 1 2 3
M  V30 3 1 2 4
M  V30 4 1 3 5
M  V30 5 1 4 6
M  V30 6 1 4 7 CFG=3
M  V30 7 1 5 8
M  V30 8 1 6 9
M  V30 9 2 8 10
M  V30 10 1 10 11
M  V30 11 1 10 12
M  V30 12 1 11 13
M  V30 13 1 13 14
M  V30 14 2 14 15
M  V30 15 1 15 16
M  V30 16 1 15 17
M  V30 END BOND
M  V30 BEGIN COLLECTION
M  V30 MDLV30/STERAC1 ATOMS=(1 4)
M  V30 END COLLECTION
M  V30 END CTAB
M  END
>  <Molecule Name>
geranyl-2-methylbutyrate

>  <Molecule Name 2>
geranyl-2-methylbutyrate

>  <Database>
Essential Oil Database

>  <InChI>
InChI=1S/C15H26O2/c1-6-14(5)15(16)17-11-10-13(4)9-7-8-12(2)3/h8,10,14H,6-7,9,11H2,1-5H3/b13-10+/t14-/m0/s1

>  <InChI-Key>
PEQMAZJTEUEQJP-UELRPHRMSA-N

>  <Smiles>
CCC(C)C(OC/C=C(\C)/CCC=C(C)C)=O

>  <Molecular Formula>
C15H26O2

$$$$
isovaleric acid
Actelion Java MolfileCreator 2.0

  0  0  0  0  0  0              0 V3000
M  V30 BEGIN CTAB
M  V30 COUNTS 7 6 0 0 0
M  V30 BEGIN ATOM
M  V30 1 O 0.0 0.0 0.0 0
M  V30 2 C 1.445 0.0481 0.0 0
M  V30 3 O 2.1555 -1.1921 0.0 0
M  V30 4 C 2.1555 1.3848 0.0 0
M  V30 5 C 1.3607 2.7215 0.0 0
M  V30 6 C 2.0712 4.0581 0.0 0
M  V30 7 C -0.1806 2.7696 0.0 0
M  V30 END ATOM
M  V30 BEGIN BOND
M  V30 1 2 1 2
M  V30 2 1 2 3
M  V30 3 1 2 4
M  V30 4 1 4 5
M  V30 5 1 5 6
M  V30 6 1 5 7
M  V30 END BOND
M  V30 END CTAB
M  END
>  <Molecule Name>
isovaleric acid

>  <Molecule Name 2>
isovaleric acid

>  <Database>
Essential Oil Database

>  <InChI>
InChI=1S/C5H10O2/c1-4(2)3-5(6)7/h4H,3H2,1-2H3,(H,6,7)

>  <InChI-Key>
GWYFCOCPABKNJV-UHFFFAOYSA-N

>  <Smiles>
CC(C)CC(O)=O

>  <Molecular Formula>
C5H10O2

$$$$
methyl nerate
Actelion Java MolfileCreator 2.0

  0  0  0  0  0  0              0 V3000
M  V30 BEGIN CTAB
M  V30 COUNTS 13 12 0 0 0
M  V30 BEGIN ATOM
M  V30 1 O 0.0 0.0 0.0 0
M  V30 2 C 0.72 1.3321 0.0 0
M  V30 3 O 2.1601 1.3801 0.0 0
M  V30 4 C -0.06 2.6642 0.0 0
M  V30 5 C 2.8682 0.144 0.0 0
M  V30 6 C -1.5961 2.7122 0.0 0
M  V30 7 C -2.3761 1.4761 0.0 0
M  V30 8 C -2.3761 4.0443 0.0 0
M  V30 9 C -3.9123 1.5241 0.0 0
M  V30 10 C -4.6803 0.288 0.0 0
M  V30 11 C -6.2164 0.336 0.0 0
M  V30 12 C -6.9965 -0.9 0.0 0
M  V30 13 C -6.9965 1.6681 0.0 0
M  V30 END ATOM
M  V30 BEGIN BOND
M  V30 1 2 1 2
M  V30 2 1 2 3
M  V30 3 1 2 4
M  V30 4 1 3 5
M  V30 5 2 4 6
M  V30 6 1 6 7
M  V30 7 1 6 8
M  V30 8 1 7 9
M  V30 9 1 9 10
M  V30 10 2 10 11
M  V30 11 1 11 12
M  V30 12 1 11 13
M  V30 END BOND
M  V30 END CTAB
M  END
>  <Molecule Name>
methyl nerate

>  <Molecule Name 2>
methyl nerate

>  <Database>
Essential Oil Database

>  <InChI>
InChI=1S/C11H18O2/c1-9(2)6-5-7-10(3)8-11(12)13-4/h6,8H,5,7H2,1-4H3/b10-8-

>  <InChI-Key>
ACOBBFVLNKYODD-NTMALXAHSA-N

>  <Smiles>
CC(C)=CCC/C(\C)=C\C(OC)=O

>  <Molecular Formula>
C11H18O2

$$$$
widdrol
Actelion Java MolfileCreator 2.0

  0  0  0  0  0  0              0 V3000
M  V30 BEGIN CTAB
M  V30 COUNTS 16 17 0 0 0
M  V30 BEGIN ATOM
M  V30 1 O 0.0 0.0 0.0 0
M  V30 2 C -1.1982 0.9491 0.0 0 CFG=2
M  V30 3 C -1.8982 -0.3321 0.0 0
M  V30 4 C -1.8982 2.3253 0.0 0
M  V30 5 C -0.0949 1.8982 0.0 0
M  V30 6 C -3.3811 -0.6169 0.0 0
M  V30 7 C -3.3811 2.7049 0.0 0
M  V30 8 C -4.5794 0.3321 0.0 0
M  V30 9 C -4.5794 1.8507 0.0 0 CFG=1
M  V30 10 C -5.8963 -0.3796 0.0 0
M  V30 11 C -5.8963 2.6219 0.0 0
M  V30 12 C -4.7455 3.3693 0.0 0
M  V30 13 C -7.2131 0.3915 0.0 0
M  V30 14 C -6.881 -1.4592 0.0 0
M  V30 15 C -5.0065 -1.4592 0.0 0
M  V30 16 C -7.2131 1.91 0.0 0
M  V30 END ATOM
M  V30 BEGIN BOND
M  V30 1 1 2 1 CFG=3
M  V30 2 1 2 3
M  V30 3 1 2 4
M  V30 4 1 2 5
M  V30 5 1 3 6
M  V30 6 1 4 7
M  V30 7 2 6 8
M  V30 8 1 7 9
M  V30 9 1 8 10
M  V30 10 1 9 11
M  V30 11 1 9 12 CFG=3
M  V30 12 1 10 13
M  V30 13 1 10 14
M  V30 14 1 10 15
M  V30 15 1 11 16
M  V30 16 1 8 9
M  V30 17 1 13 16
M  V30 END BOND
M  V30 BEGIN COLLECTION
M  V30 MDLV30/STEABS ATOMS=(2 2 9)
M  V30 END COLLECTION
M  V30 END CTAB
M  END
>  <Molecule Name>
widdrol

>  <Molecule Name 2>
widdrol

>  <Database>
Essential Oil Database

>  <InChI>
InChI=1S/C15H26O/c1-13(2)7-5-8-14(3)10-11-15(4,16)9-6-12(13)14/h6,16H,5,7-11H2,1-4H3/t14-,15+/m0/s1

>  <InChI-Key>
BXGVVQADPFXGHD-LSDHHAIUSA-N

>  <Smiles>
CC(C)(CCC[C@@]1(C)CC2)C1=CC[C@@]2(C)O

>  <Molecular Formula>
C15H26O

$$$$
2-methylbutanal
Actelion Java MolfileCreator 2.0

  0  0  0  0  0  0              0 V3000
M  V30 BEGIN CTAB
M  V30 COUNTS 6 5 0 0 0
M  V30 BEGIN ATOM
M  V30 1 O 0.0 0.0 0.0 0
M  V30 2 C 0.7271 -1.2694 0.0 0
M  V30 3 C -0.0739 -2.5389 0.0 0 CFG=2
M  V30 4 C 0.6532 -3.8083 0.0 0
M  V30 5 C -1.6515 -2.4896 0.0 0
M  V30 6 C -0.1355 -5.0778 0.0 0
M  V30 END ATOM
M  V30 BEGIN BOND
M  V30 1 2 1 2
M  V30 2 1 2 3
M  V30 3 1 3 4
M  V30 4 1 3 5 CFG=3
M  V30 5 1 4 6
M  V30 END BOND
M  V30 BEGIN COLLECTION
M  V30 MDLV30/STERAC1 ATOMS=(1 3)
M  V30 END COLLECTION
M  V30 END CTAB
M  END
>  <Molecule Name>
2-methylbutanal

>  <Molecule Name 2>
2-methylbutanal

>  <Database>
Essential Oil Database

>  <InChI>
InChI=1S/C5H10O/c1-3-5(2)4-6/h4-5H,3H2,1-2H3/t5-/m0/s1

>  <InChI-Key>
BYGQBDHUGHBGMD-YFKPBYRVSA-N

>  <Smiles>
CCC(C)C=O

>  <Molecular Formula>
C5H10O

$$$$
2-pentylfuran
Actelion Java MolfileCreator 2.0

  0  0  0  0  0  0              0 V3000
M  V30 BEGIN CTAB
M  V30 COUNTS 10 10 0 0 0
M  V30 BEGIN ATOM
M  V30 1 O 0.0 0.0 0.0 0
M  V30 2 C 1.3516 -0.5593 0.0 0
M  V30 3 C -1.072 -1.0953 0.0 0
M  V30 4 C 1.1536 -2.0275 0.0 0
M  V30 5 C 2.6334 0.268 0.0 0
M  V30 6 C -0.3728 -2.3771 0.0 0
M  V30 7 C 3.9152 -0.4311 0.0 0
M  V30 8 C 5.197 0.3961 0.0 0
M  V30 9 C 6.4788 -0.3029 0.0 0
M  V30 10 C 7.7606 0.5243 0.0 0
M  V30 END ATOM
M  V30 BEGIN BOND
M  V30 1 1 1 2
M  V30 2 1 1 3
M  V30 3 2 2 4
M  V30 4 1 2 5
M  V30 5 2 3 6
M  V30 6 1 5 7
M  V30 7 1 7 8
M  V30 8 1 8 9
M  V30 9 1 9 10
M  V30 10 1 4 6
M  V30 END BOND
M  V30 END CTAB
M  END
>  <Molecule Name>
2-pentylfuran

>  <Molecule Name 2>
2-pentylfuran

>  <Database>
Essential Oil Database

>  <InChI>
InChI=1S/C9H14O/c1-2-3-4-6-9-7-5-8-10-9/h5,7-8H,2-4,6H2,1H3

>  <InChI-Key>
YVBAUDVGOFCUSG-UHFFFAOYSA-N

>  <Smiles>
CCCCCc1ccc[o]1

>  <Molecular Formula>
C9H14O

$$$$
3-methylbutanal
Actelion Java MolfileCreator 2.0

  0  0  0  0  0  0              0 V3000
M  V30 BEGIN CTAB
M  V30 COUNTS 6 5 0 0 0
M  V30 BEGIN ATOM
M  V30 1 O 0.0 0.0 0.0 0
M  V30 2 C -0.7544 1.3084 0.0 0
M  V30 3 C -0.0589 2.6169 0.0 0
M  V30 4 C -0.8251 3.9254 0.0 0
M  V30 5 C -0.1296 5.2339 0.0 0
M  V30 6 C -2.334 3.9725 0.0 0
M  V30 END ATOM
M  V30 BEGIN BOND
M  V30 1 2 1 2
M  V30 2 1 2 3
M  V30 3 1 3 4
M  V30 4 1 4 5
M  V30 5 1 4 6
M  V30 END BOND
M  V30 END CTAB
M  END
>  <Molecule Name>
3-methylbutanal

>  <Molecule Name 2>
3-methylbutanal

>  <Database>
Essential Oil Database

>  <InChI>
InChI=1S/C5H10O/c1-5(2)3-4-6/h4-5H,3H2,1-2H3

>  <InChI-Key>
YGHRJJRRZDOVPD-UHFFFAOYSA-N

>  <Smiles>
CC(C)CC=O

>  <Molecular Formula>
C5H10O

$$$$
isophytol
Actelion Java MolfileCreator 2.0

  0  0  0  0  0  0              0 V3000
M  V30 BEGIN CTAB
M  V30 COUNTS 21 20 0 0 0
M  V30 BEGIN ATOM
M  V30 1 O 0.0 0.0 0.0 0
M  V30 2 C -0.7843 -1.239 0.0 0
M  V30 3 C 0.4547 -1.9211 0.0 0
M  V30 4 C -2.1143 -0.4319 0.0 0
M  V30 5 C -1.5914 -2.4781 0.0 0
M  V30 6 C 1.6937 -1.1253 0.0 0
M  V30 7 C -3.4443 -1.1253 0.0 0
M  V30 8 C -4.7743 -0.3182 0.0 0
M  V30 9 C -6.1043 -1.0003 0.0 0
M  V30 10 C -7.4343 -0.1932 0.0 0
M  V30 11 C -6.1498 -2.4326 0.0 0
M  V30 12 C -8.7643 -0.8753 0.0 0
M  V30 13 C -10.0943 -0.0682 0.0 0
M  V30 14 C -11.4243 -0.7616 0.0 0
M  V30 15 C -12.7543 0.0454 0.0 0
M  V30 16 C -11.4698 -2.1939 0.0 0
M  V30 17 C -14.0843 -0.6365 0.0 0
M  V30 18 C -15.4144 0.1705 0.0 0
M  V30 19 C -16.7444 -0.5115 0.0 0
M  V30 20 C -18.0744 0.2955 0.0 0
M  V30 21 C -16.7898 -1.9438 0.0 0
M  V30 END ATOM
M  V30 BEGIN BOND
M  V30 1 1 1 2
M  V30 2 1 2 3
M  V30 3 1 2 4
M  V30 4 1 2 5
M  V30 5 2 3 6
M  V30 6 1 4 7
M  V30 7 1 7 8
M  V30 8 1 8 9
M  V30 9 1 9 10
M  V30 10 1 9 11
M  V30 11 1 10 12
M  V30 12 1 12 13
M  V30 13 1 13 14
M  V30 14 1 14 15
M  V30 15 1 14 16
M  V30 16 1 15 17
M  V30 17 1 17 18
M  V30 18 1 18 19
M  V30 19 1 19 20
M  V30 20 1 19 21
M  V30 END BOND
M  V30 END CTAB
M  END
>  <Molecule Name>
isophytol

>  <Molecule Name 2>
isophytol

>  <Database>
Essential Oil Database

>  <InChI>
InChI=1S/C20H40O/c1-7-20(6,21)16-10-15-19(5)14-9-13-18(4)12-8-11-17(2)3/h7,17-19,21H,1,8-16H2,2-6H3

>  <InChI-Key>
KEVYVLWNCKMXJX-UHFFFAOYSA-N

>  <Smiles>
CC(C)CCCC(C)CCCC(C)CCCC(C)(C=C)O

>  <Molecular Formula>
C20H40O

$$$$
manool
Actelion Java MolfileCreator 2.0

  0  0  0  0  0  0              0 V3000
M  V30 BEGIN CTAB
M  V30 COUNTS 21 22 0 0 0
M  V30 BEGIN ATOM
M  V30 1 O 0.0 0.0 0.0 0
M  V30 2 C -1.54 0.0481 0.0 0 CFG=1
M  V30 3 C -1.5882 -1.3957 0.0 0
M  V30 4 C -1.5882 1.5882 0.0 0
M  V30 5 C -3.0801 0.0962 0.0 0
M  V30 6 C -0.3489 -2.1055 0.0 0
M  V30 7 C -2.9237 2.3702 0.0 0
M  V30 8 C -2.9718 3.9103 0.0 0 CFG=1
M  V30 9 C -4.3074 4.6924 0.0 0
M  V30 10 C -1.7326 4.6924 0.0 0 CFG=2
M  V30 11 C -5.6429 3.9705 0.0 0
M  V30 12 C -4.3555 6.2325 0.0 0
M  V30 13 C -1.7807 6.2325 0.0 0 CFG=1
M  V30 14 C -0.4933 3.9705 0.0 0
M  V30 15 C -1.7807 3.2486 0.0 0
M  V30 16 C -3.1162 7.0026 0.0 0
M  V30 17 C -0.5414 7.0026 0.0 0
M  V30 18 C 0.7459 4.7526 0.0 0
M  V30 19 C 0.6978 6.2927 0.0 0
M  V30 20 C -1.54 8.1817 0.0 0
M  V30 21 C 0.3609 8.1817 0.0 0
M  V30 END ATOM
M  V30 BEGIN BOND
M  V30 1 1 1 2
M  V30 2 1 2 3 CFG=1
M  V30 3 1 2 4
M  V30 4 1 2 5
M  V30 5 2 3 6
M  V30 6 1 4 7
M  V30 7 1 8 7 CFG=1
M  V30 8 1 8 9
M  V30 9 1 8 10
M  V30 10 2 9 11
M  V30 11 1 9 12
M  V30 12 1 10 13
M  V30 13 1 10 14
M  V30 14 1 10 15 CFG=1
M  V30 15 1 12 16
M  V30 16 1 13 17
M  V30 17 1 14 18
M  V30 18 1 17 19
M  V30 19 1 17 20
M  V30 20 1 17 21
M  V30 21 1 13 16 CFG=1
M  V30 22 1 18 19
M  V30 END BOND
M  V30 BEGIN COLLECTION
M  V30 MDLV30/STEABS ATOMS=(4 2 8 10 13)
M  V30 END COLLECTION
M  V30 END CTAB
M  END
>  <Molecule Name>
manool

>  <Molecule Name 2>
manool

>  <Database>
Essential Oil Database

>  <InChI>
InChI=1S/C20H34O/c1-7-19(5,21)14-11-16-15(2)9-10-17-18(3,4)12-8-13-20(16,17)6/h7,16-17,21H,1-2,8-14H2,3-6H3/t16-,17-,19-,20+/m0/s1

>  <InChI-Key>
CECREIRZLPLYDM-QGZVKYPTSA-N

>  <Smiles>
C[C@@](CC[C@H]([C@]1(C)[C@@H](CC2)C(C)(C)CCC1)C2=C)(C=C)O

>  <Molecular Formula>
C20H34O

$$$$
(z)-phytol
Actelion Java MolfileCreator 2.0

  0  0  0  0  0  0              0 V3000
M  V30 BEGIN CTAB
M  V30 COUNTS 21 20 0 0 0
M  V30 BEGIN ATOM
M  V30 1 O 0.0 0.0 0.0 0
M  V30 2 C 1.2929 -0.7117 0.0 0
M  V30 3 C 1.2454 -2.2062 0.0 0
M  V30 4 C 2.5384 -2.9061 0.0 0
M  V30 5 C 3.8313 -2.0758 0.0 0
M  V30 6 C 2.4909 -4.4007 0.0 0
M  V30 7 C 5.1242 -2.7756 0.0 0
M  V30 8 C 6.4172 -1.9453 0.0 0
M  V30 9 C 7.7101 -2.6451 0.0 0 CFG=1
M  V30 10 C 9.003 -1.8148 0.0 0
M  V30 11 C 7.6626 -4.1397 0.0 0
M  V30 12 C 10.296 -2.5146 0.0 0
M  V30 13 C 11.5889 -1.6843 0.0 0
M  V30 14 C 12.8818 -2.3842 0.0 0 CFG=1
M  V30 15 C 14.1748 -1.5538 0.0 0
M  V30 16 C 12.8344 -3.8787 0.0 0
M  V30 17 C 15.4677 -2.2537 0.0 0
M  V30 18 C 16.7606 -1.4234 0.0 0
M  V30 19 C 18.0536 -2.1232 0.0 0
M  V30 20 C 19.3465 -1.2929 0.0 0
M  V30 21 C 18.0061 -3.6178 0.0 0
M  V30 END ATOM
M  V30 BEGIN BOND
M  V30 1 1 1 2
M  V30 2 1 2 3
M  V30 3 2 3 4
M  V30 4 1 4 5
M  V30 5 1 4 6
M  V30 6 1 5 7
M  V30 7 1 7 8
M  V30 8 1 8 9
M  V30 9 1 9 10
M  V30 10 1 9 11 CFG=1
M  V30 11 1 10 12
M  V30 12 1 12 13
M  V30 13 1 13 14
M  V30 14 1 14 15
M  V30 15 1 14 16 CFG=1
M  V30 16 1 15 17
M  V30 17 1 17 18
M  V30 18 1 18 19
M  V30 19 1 19 20
M  V30 20 1 19 21
M  V30 END BOND
M  V30 BEGIN COLLECTION
M  V30 MDLV30/STEABS ATOMS=(2 9 14)
M  V30 END COLLECTION
M  V30 END CTAB
M  END
>  <Molecule Name>
(z)-phytol

>  <Molecule Name 2>
(z)-phytol

>  <Database>
Essential Oil Database

>  <InChI>
InChI=1S/C20H40O/c1-17(2)9-6-10-18(3)11-7-12-19(4)13-8-14-20(5)15-16-21/h15,17-19,21H,6-14,16H2,1-5H3/b20-15-/t18-,19-/m1/s1

>  <InChI-Key>
BOTWFXYSPFMFNR-QYLFUYDXSA-N

>  <Smiles>
CC(C)CCC[C@@H](C)CCC[C@@H](C)CCC/C(\C)=C\CO

>  <Molecular Formula>
C20H40O

$$$$
dendrolasin
Actelion Java MolfileCreator 2.0

  0  0  0  0  0  0              0 V3000
M  V30 BEGIN CTAB
M  V30 COUNTS 16 16 0 0 0
M  V30 BEGIN ATOM
M  V30 1 O 0.0 0.0 0.0 0
M  V30 2 C 0.4181 1.4576 0.0 0
M  V30 3 C -1.5293 0.0477 0.0 0
M  V30 4 C -0.8244 2.3657 0.0 0
M  V30 5 C -2.0431 1.5054 0.0 0
M  V30 6 C -0.8722 3.895 0.0 0
M  V30 7 C -2.1984 4.6597 0.0 0
M  V30 8 C -2.2462 6.189 0.0 0
M  V30 9 C -1.0155 6.9657 0.0 0
M  V30 10 C -1.0633 8.495 0.0 0
M  V30 11 C 0.215 6.2607 0.0 0
M  V30 12 C 0.1672 9.2597 0.0 0
M  V30 13 C 0.1194 10.789 0.0 0
M  V30 14 C 1.3501 11.5656 0.0 0
M  V30 15 C 1.3023 13.095 0.0 0
M  V30 16 C 2.5807 10.8607 0.0 0
M  V30 END ATOM
M  V30 BEGIN BOND
M  V30 1 1 1 2
M  V30 2 1 1 3
M  V30 3 2 2 4
M  V30 4 2 3 5
M  V30 5 1 4 6
M  V30 6 1 6 7
M  V30 7 1 7 8
M  V30 8 2 8 9
M  V30 9 1 9 10
M  V30 10 1 9 11
M  V30 11 1 10 12
M  V30 12 1 12 13
M  V30 13 2 13 14
M  V30 14 1 14 15
M  V30 15 1 14 16
M  V30 16 1 4 5
M  V30 END BOND
M  V30 END CTAB
M  END
>  <Molecule Name>
dendrolasin

>  <Molecule Name 2>
dendrolasin

>  <Database>
Essential Oil Database

>  <InChI>
InChI=1S/C15H22O/c1-13(2)6-4-7-14(3)8-5-9-15-10-11-16-12-15/h6,8,10-12H,4-5,7,9H2,1-3H3/b14-8+

>  <InChI-Key>
LZBXPXAOYQVZEC-RIYZIHGNSA-N

>  <Smiles>
CC(C)=CCC/C(\C)=C/CCc1c[o]cc1

>  <Molecular Formula>
C15H22O

$$$$
himachalol
Actelion Java MolfileCreator 2.0

  0  0  0  0  0  0              0 V3000
M  V30 BEGIN CTAB
M  V30 COUNTS 16 17 0 0 0
M  V30 BEGIN ATOM
M  V30 1 O 0.0 0.0 0.0 0
M  V30 2 C -0.682 -1.3062 0.0 0 CFG=1
M  V30 3 C -1.9073 -2.2078 0.0 0 CFG=1
M  V30 4 C 0.7398 -1.5836 0.0 0
M  V30 5 C -1.9073 -0.3121 0.0 0
M  V30 6 C -1.9535 -3.6644 0.0 0 CFG=2
M  V30 7 C -3.2598 -1.3987 0.0 0
M  V30 8 C 1.3293 -2.8899 0.0 0
M  V30 9 C -3.306 -4.3695 0.0 0
M  V30 10 C -0.8207 -4.566 0.0 0
M  V30 11 C -4.6123 -2.0807 0.0 0
M  V30 12 C 0.6473 -4.1961 0.0 0
M  V30 13 C -4.6585 -3.5488 0.0 0
M  V30 14 C -0.5086 -5.9763 0.0 0
M  V30 15 C -1.8379 -5.6757 0.0 0
M  V30 16 C -6.011 -4.277 0.0 0
M  V30 END ATOM
M  V30 BEGIN BOND
M  V30 1 1 2 1 CFG=3
M  V30 2 1 2 3
M  V30 3 1 2 4
M  V30 4 1 2 5
M  V30 5 1 3 6
M  V30 6 1 3 7 CFG=1
M  V30 7 1 4 8
M  V30 8 1 6 9
M  V30 9 1 6 10 CFG=1
M  V30 10 1 7 11
M  V30 11 1 8 12
M  V30 12 2 9 13
M  V30 13 1 10 14
M  V30 14 1 10 15
M  V30 15 1 13 16
M  V30 16 1 10 12
M  V30 17 1 11 13
M  V30 END BOND
M  V30 BEGIN COLLECTION
M  V30 MDLV30/STEABS ATOMS=(3 2 3 6)
M  V30 END COLLECTION
M  V30 END CTAB
M  END
>  <Molecule Name>
himachalol

>  <Molecule Name 2>
himachalol

>  <Database>
Essential Oil Database

>  <InChI>
InChI=1S/C15H26O/c1-11-6-7-12-13(10-11)14(2,3)8-5-9-15(12,4)16/h10,12-13,16H,5-9H2,1-4H3/t12-,13+,15-/m1/s1

>  <InChI-Key>
BBAMLNIPVMLTSQ-VNHYZAJKSA-N

>  <Smiles>
CC(C)(CCC1)[C@H]2C=C(C)CC[C@H]2[C@]1(C)O

>  <Molecular Formula>
C15H26O

$$$$
p-menth-1-en-7-ol
Actelion Java MolfileCreator 2.0

  0  0  0  0  0  0              0 V3000
M  V30 BEGIN CTAB
M  V30 COUNTS 11 11 0 0 0
M  V30 BEGIN ATOM
M  V30 1 O 0.0 0.0 0.0 0
M  V30 2 C 1.2901 -0.6983 0.0 0
M  V30 3 C 1.2427 -2.1896 0.0 0
M  V30 4 C -0.142 -2.8879 0.0 0
M  V30 5 C 2.5328 -2.8879 0.0 0
M  V30 6 C -0.1893 -4.3792 0.0 0
M  V30 7 C 2.4855 -4.3792 0.0 0
M  V30 8 C 1.1007 -5.0776 0.0 0 CFG=2
M  V30 9 C 1.0533 -6.5689 0.0 0
M  V30 10 C -0.3314 -7.279 0.0 0
M  V30 11 C 2.3435 -7.279 0.0 0
M  V30 END ATOM
M  V30 BEGIN BOND
M  V30 1 1 1 2
M  V30 2 1 2 3
M  V30 3 2 3 4
M  V30 4 1 3 5
M  V30 5 1 4 6
M  V30 6 1 5 7
M  V30 7 1 6 8
M  V30 8 1 8 9 CFG=3
M  V30 9 1 9 10
M  V30 10 1 9 11
M  V30 11 1 7 8
M  V30 END BOND
M  V30 BEGIN COLLECTION
M  V30 MDLV30/STERAC1 ATOMS=(1 8)
M  V30 END COLLECTION
M  V30 END CTAB
M  END
>  <Molecule Name>
p-menth-1-en-7-ol

>  <Molecule Name 2>
p-menth-1-en-7-ol

>  <Database>
Essential Oil Database

>  <InChI>
InChI=1S/C10H18O/c1-8(2)10-5-3-9(7-11)4-6-10/h3,8,10-11H,4-7H2,1-2H3/t10-/m1/s1

>  <InChI-Key>
FFOYLHBMVUGHSX-SNVBAGLBSA-N

>  <Smiles>
CC(C)C1CC=C(CO)CC1

>  <Molecular Formula>
C10H18O

$$$$
beta-thujone
Actelion Java MolfileCreator 2.0

  0  0  0  0  0  0              0 V3000
M  V30 BEGIN CTAB
M  V30 COUNTS 11 12 0 0 0
M  V30 BEGIN ATOM
M  V30 1 O 0.0 0.0 0.0 0
M  V30 2 C -1.5305 0.0478 0.0 0
M  V30 3 C -2.4392 1.2913 0.0 0 CFG=2
M  V30 4 C -2.4392 -1.1 0.0 0
M  V30 5 C -3.898 0.8728 0.0 0 CFG=2
M  V30 6 C -2.0207 2.7501 0.0 0
M  V30 7 C -3.898 -0.5859 0.0 0 CFG=1
M  V30 8 C -5.2253 0.1674 0.0 0
M  V30 9 C -4.5676 -1.8892 0.0 0
M  V30 10 C -6.0862 -1.9968 0.0 0
M  V30 11 C -3.7545 -3.0371 0.0 0
M  V30 END ATOM
M  V30 BEGIN BOND
M  V30 1 2 1 2
M  V30 2 1 2 3
M  V30 3 1 2 4
M  V30 4 1 3 5
M  V30 5 1 3 6 CFG=3
M  V30 6 1 4 7
M  V30 7 1 5 8 CFG=3
M  V30 8 1 7 9 CFG=1
M  V30 9 1 9 10
M  V30 10 1 9 11
M  V30 11 1 5 7
M  V30 12 1 7 8
M  V30 END BOND
M  V30 BEGIN COLLECTION
M  V30 MDLV30/STEABS ATOMS=(3 3 5 7)
M  V30 END COLLECTION
M  V30 END CTAB
M  END
>  <Molecule Name>
beta-thujone

>  <Molecule Name 2>
beta-thujone

>  <Database>
Essential Oil Database

>  <InChI>
InChI=1S/C10H16O/c1-6(2)10-4-8(10)7(3)9(11)5-10/h6-8H,4-5H2,1-3H3/t7-,8+,10-/m0/s1

>  <InChI-Key>
USMNOWBWPHYOEA-XKSSXDPKSA-N

>  <Smiles>
CC(C)[C@](C1)(C2)[C@H]1[C@H](C)C2=O

>  <Molecular Formula>
C10H16O

$$$$
linoleic acid
Actelion Java MolfileCreator 2.0

  0  0  0  0  0  0              0 V3000
M  V30 BEGIN CTAB
M  V30 COUNTS 20 19 0 0 0
M  V30 BEGIN ATOM
M  V30 1 O 0.0 0.0 0.0 0
M  V30 2 C -0.0474 1.5178 0.0 0
M  V30 3 O 1.1739 2.2885 0.0 0
M  V30 4 C -1.3636 2.2885 0.0 0
M  V30 5 C -2.6798 1.577 0.0 0
M  V30 6 C -3.9961 2.3478 0.0 0
M  V30 7 C -5.3123 1.6363 0.0 0
M  V30 8 C -6.6285 2.4071 0.0 0
M  V30 9 C -7.9447 1.6956 0.0 0
M  V30 10 C -9.261 2.4664 0.0 0
M  V30 11 C -10.5772 1.7549 0.0 0
M  V30 12 C -11.8934 2.5257 0.0 0
M  V30 13 C -11.9408 4.0435 0.0 0
M  V30 14 C -13.2571 4.8143 0.0 0
M  V30 15 C -13.3045 6.3321 0.0 0
M  V30 16 C -12.0831 7.1028 0.0 0
M  V30 17 C -12.1306 8.6206 0.0 0
M  V30 18 C -10.9092 9.3914 0.0 0
M  V30 19 C -10.9566 10.9092 0.0 0
M  V30 20 C -9.7353 11.6681 0.0 0
M  V30 END ATOM
M  V30 BEGIN BOND
M  V30 1 2 1 2
M  V30 2 1 2 3
M  V30 3 1 2 4
M  V30 4 1 4 5
M  V30 5 1 5 6
M  V30 6 1 6 7
M  V30 7 1 7 8
M  V30 8 1 8 9
M  V30 9 1 9 10
M  V30 10 1 10 11
M  V30 11 2 11 12
M  V30 12 1 12 13
M  V30 13 1 13 14
M  V30 14 2 14 15
M  V30 15 1 15 16
M  V30 16 1 16 17
M  V30 17 1 17 18
M  V30 18 1 18 19
M  V30 19 1 19 20
M  V30 END BOND
M  V30 END CTAB
M  END
>  <Molecule Name>
linoleic acid

>  <Molecule Name 2>
linoleic acid

>  <Database>
Essential Oil Database

>  <InChI>
InChI=1S/C18H32O2/c1-2-3-4-5-6-7-8-9-10-11-12-13-14-15-16-17-18(19)20/h6-7,9-10H,2-5,8,11-17H2,1H3,(H,19,20)/b7-6-,10-9-

>  <InChI-Key>
OYHQOLUKZRVURQ-HZJYTTRNSA-N

>  <Smiles>
CCCCC/C=C\C/C=C\CCCCCCCC(O)=O

>  <Molecular Formula>
C18H32O2

$$$$
(z)-falcarinol
Actelion Java MolfileCreator 2.0

  0  0  0  0  0  0              0 V3000
M  V30 BEGIN CTAB
M  V30 COUNTS 18 17 0 0 0
M  V30 BEGIN ATOM
M  V30 1 O 0.0 0.0 0.0 0
M  V30 2 C -0.0456 -1.437 0.0 0 CFG=1
M  V30 3 C -1.38 -2.1213 0.0 0
M  V30 4 C 1.1975 -2.1213 0.0 0
M  V30 5 C -2.7144 -2.8399 0.0 0
M  V30 6 C 2.4407 -1.323 0.0 0
M  V30 7 C -4.0488 -3.5128 0.0 0
M  V30 8 C -5.3832 -4.1857 0.0 0
M  V30 9 C -6.7177 -4.8586 0.0 0
M  V30 10 C -6.7633 -6.2957 0.0 0
M  V30 11 C -8.0977 -6.98 0.0 0
M  V30 12 C -9.4321 -6.1816 0.0 0
M  V30 13 C -10.7665 -6.8659 0.0 0
M  V30 14 C -12.101 -6.0676 0.0 0
M  V30 15 C -13.4354 -6.7519 0.0 0
M  V30 16 C -14.7698 -5.9535 0.0 0
M  V30 17 C -16.1042 -6.6606 0.0 0
M  V30 18 C -17.4386 -5.8623 0.0 0
M  V30 END ATOM
M  V30 BEGIN BOND
M  V30 1 1 2 1 CFG=3
M  V30 2 1 2 3
M  V30 3 1 2 4
M  V30 4 3 3 5
M  V30 5 2 4 6
M  V30 6 1 5 7
M  V30 7 3 7 8
M  V30 8 1 8 9
M  V30 9 1 9 10
M  V30 10 2 10 11
M  V30 11 1 11 12
M  V30 12 1 12 13
M  V30 13 1 13 14
M  V30 14 1 14 15
M  V30 15 1 15 16
M  V30 16 1 16 17
M  V30 17 1 17 18
M  V30 END BOND
M  V30 BEGIN COLLECTION
M  V30 MDLV30/STEABS ATOMS=(1 2)
M  V30 END COLLECTION
M  V30 END CTAB
M  END
>  <Molecule Name>
(z)-falcarinol

>  <Molecule Name 2>
(z)-falcarinol

>  <Database>
Essential Oil Database

>  <InChI>
InChI=1S/C17H24O/c1-3-5-6-7-8-9-10-11-12-13-14-15-16-17(18)4-2/h4,10-11,17-18H,2-3,5-9,12H2,1H3/b11-10-/t17-/m1/s1

>  <InChI-Key>
UGJAEDFOKNAMQD-QXPKXGMISA-N

>  <Smiles>
CCCCCCC/C=C\CC#CC#C[C@@H](C=C)O

>  <Molecular Formula>
C17H24O

$$$$
ascaridole
Actelion Java MolfileCreator 2.0

  0  0  0  0  0  0              0 V3000
M  V30 BEGIN CTAB
M  V30 COUNTS 12 13 0 0 0
M  V30 BEGIN ATOM
M  V30 1 O 0.0 0.0 0.0 0
M  V30 2 O -0.0515 1.6481 0.0 0
M  V30 3 C -1.4292 -0.7597 0.0 0
M  V30 4 C -1.4807 2.4851 0.0 0
M  V30 5 C -1.2103 0.3476 0.0 0
M  V30 6 C -1.4807 -2.3048 0.0 0
M  V30 7 C -2.8585 0.0643 0.0 0
M  V30 8 C -1.2618 1.4807 0.0 0
M  V30 9 C -2.91 1.7254 0.0 0
M  V30 10 C -1.5322 4.1333 0.0 0
M  V30 11 C -2.91 -3.0774 0.0 0
M  V30 12 C -0.1545 -3.0774 0.0 0
M  V30 END ATOM
M  V30 BEGIN BOND
M  V30 1 1 1 2
M  V30 2 1 1 3
M  V30 3 1 2 4
M  V30 4 1 3 5
M  V30 5 1 3 6
M  V30 6 1 3 7
M  V30 7 1 4 8
M  V30 8 1 4 9
M  V30 9 1 4 10
M  V30 10 1 6 11
M  V30 11 1 6 12
M  V30 12 2 5 8
M  V30 13 1 7 9
M  V30 END BOND
M  V30 END CTAB
M  END
>  <Molecule Name>
ascaridole

>  <Molecule Name 2>
ascaridole

>  <Database>
Essential Oil Database

>  <InChI>
InChI=1S/C10H16O2/c1-8(2)10-6-4-9(3,5-7-10)11-12-10/h4,6,8H,5,7H2,1-3H3

>  <InChI-Key>
MGYMHQJELJYRQS-UHFFFAOYSA-N

>  <Smiles>
CC(C)C1(CC2)OOC2(C)C=C1

>  <Molecular Formula>
C10H16O2

$$$$
piperitenone
Actelion Java MolfileCreator 2.0

  0  0  0  0  0  0              0 V3000
M  V30 BEGIN CTAB
M  V30 COUNTS 11 11 0 0 0
M  V30 BEGIN ATOM
M  V30 1 O 0.0 0.0 0.0 0
M  V30 2 C 1.2708 -0.7279 0.0 0
M  V30 3 C 2.5416 0.0616 0.0 0
M  V30 4 C 1.2214 -2.2085 0.0 0
M  V30 5 C 2.4922 1.6409 0.0 0
M  V30 6 C 3.8124 -0.6662 0.0 0
M  V30 7 C 2.4922 -2.9364 0.0 0
M  V30 8 C 3.7631 2.4429 0.0 0
M  V30 9 C 1.1227 2.4429 0.0 0
M  V30 10 C 3.7631 -2.1468 0.0 0
M  V30 11 C 2.4429 -4.417 0.0 0
M  V30 END ATOM
M  V30 BEGIN BOND
M  V30 1 2 1 2
M  V30 2 1 2 3
M  V30 3 1 2 4
M  V30 4 2 3 5
M  V30 5 1 3 6
M  V30 6 2 4 7
M  V30 7 1 5 8
M  V30 8 1 5 9
M  V30 9 1 6 10
M  V30 10 1 7 11
M  V30 11 1 7 10
M  V30 END BOND
M  V30 END CTAB
M  END
>  <Molecule Name>
piperitenone

>  <Molecule Name 2>
piperitenone

>  <Database>
Essential Oil Database

>  <InChI>
InChI=1S/C10H14O/c1-7(2)9-5-4-8(3)6-10(9)11/h6H,4-5H2,1-3H3

>  <InChI-Key>
HKZQJZIFODOLFR-UHFFFAOYSA-N

>  <Smiles>
CC(C)=C(CCC(C)=C1)C1=O

>  <Molecular Formula>
C10H14O

$$$$
piperitenone oxide
Actelion Java MolfileCreator 2.0

  0  0  0  0  0  0              0 V3000
M  V30 BEGIN CTAB
M  V30 COUNTS 12 13 0 0 0
M  V30 BEGIN ATOM
M  V30 1 O 0.0 0.0 0.0 0
M  V30 2 C -0.049 -1.4719 0.0 0
M  V30 3 C 1.2143 -2.2079 0.0 0
M  V30 4 C -1.4106 -2.2079 0.0 0 CFG=1
M  V30 5 C 2.4778 -1.4106 0.0 0
M  V30 6 C 1.1653 -3.6799 0.0 0
M  V30 7 O -2.7722 -2.9439 0.0 0
M  V30 8 C -1.4597 -3.6799 0.0 0 CFG=1
M  V30 9 C 3.7412 -2.1466 0.0 0
M  V30 10 C 2.4287 0.1594 0.0 0
M  V30 11 C -0.1962 -4.4036 0.0 0
M  V30 12 C -2.257 -4.9434 0.0 0
M  V30 END ATOM
M  V30 BEGIN BOND
M  V30 1 2 1 2
M  V30 2 1 2 3
M  V30 3 1 2 4
M  V30 4 2 3 5
M  V30 5 1 3 6
M  V30 6 1 4 7 CFG=3
M  V30 7 1 4 8
M  V30 8 1 5 9
M  V30 9 1 5 10
M  V30 10 1 6 11
M  V30 11 1 8 12
M  V30 12 1 8 7 CFG=3
M  V30 13 1 8 11
M  V30 END BOND
M  V30 BEGIN COLLECTION
M  V30 MDLV30/STEABS ATOMS=(2 4 8)
M  V30 END COLLECTION
M  V30 END CTAB
M  END
>  <Molecule Name>
piperitenone oxide

>  <Molecule Name 2>
piperitenone oxide

>  <Database>
Essential Oil Database

>  <InChI>
InChI=1S/C10H14O2/c1-6(2)7-4-5-10(3)9(12-10)8(7)11/h9H,4-5H2,1-3H3/t9-,10+/m1/s1

>  <InChI-Key>
AKASWINDKIEEBO-ZJUUUORDSA-N

>  <Smiles>
C[C@@]1(CCC2=C(C)C)O[C@@H]1C2=O

>  <Molecular Formula>
C10H14O2

$$$$
3-nonanol
Actelion Java MolfileCreator 2.0

  0  0  0  0  0  0              0 V3000
M  V30 BEGIN CTAB
M  V30 COUNTS 10 9 0 0 0
M  V30 BEGIN ATOM
M  V30 1 O 0.0 0.0 0.0 0
M  V30 2 C -0.0466 -1.469 0.0 0 CFG=2
M  V30 3 C 1.2241 -2.1685 0.0 0
M  V30 4 C -1.4107 -2.1685 0.0 0
M  V30 5 C 2.4949 -1.3407 0.0 0
M  V30 6 C -2.7747 -1.3407 0.0 0
M  V30 7 C 3.7657 -2.0402 0.0 0
M  V30 8 C 5.0365 -1.2125 0.0 0
M  V30 9 C 6.3073 -1.912 0.0 0
M  V30 10 C 7.5781 -1.0842 0.0 0
M  V30 END ATOM
M  V30 BEGIN BOND
M  V30 1 1 2 1 CFG=3
M  V30 2 1 2 3
M  V30 3 1 2 4
M  V30 4 1 3 5
M  V30 5 1 4 6
M  V30 6 1 5 7
M  V30 7 1 7 8
M  V30 8 1 8 9
M  V30 9 1 9 10
M  V30 END BOND
M  V30 BEGIN COLLECTION
M  V30 MDLV30/STERAC1 ATOMS=(1 2)
M  V30 END COLLECTION
M  V30 END CTAB
M  END
>  <Molecule Name>
3-nonanol

>  <Molecule Name 2>
3-nonanol

>  <Database>
Essential Oil Database

>  <InChI>
InChI=1S/C9H20O/c1-3-5-6-7-8-9(10)4-2/h9-10H,3-8H2,1-2H3/t9-/m0/s1

>  <InChI-Key>
GYSCXPVAKHVAAY-VIFPVBQESA-N

>  <Smiles>
CCCCCCC(CC)O

>  <Molecular Formula>
C9H20O

$$$$
neryl valerate
Actelion Java MolfileCreator 2.0

  0  0  0  0  0  0              0 V3000
M  V30 BEGIN CTAB
M  V30 COUNTS 17 16 0 0 0
M  V30 BEGIN ATOM
M  V30 1 O 0.0 0.0 0.0 0
M  V30 2 C -0.0485 -1.4561 0.0 0
M  V30 3 O 1.2012 -2.1841 0.0 0
M  V30 4 C -1.3954 -2.1841 0.0 0
M  V30 5 C 2.4511 -1.3954 0.0 0
M  V30 6 C -2.7423 -1.3954 0.0 0
M  V30 7 C 3.7009 -2.1235 0.0 0
M  V30 8 C -4.0892 -2.1235 0.0 0
M  V30 9 C 4.9508 -1.3347 0.0 0
M  V30 10 C -5.4361 -1.3347 0.0 0
M  V30 11 C 4.9022 0.2184 0.0 0
M  V30 12 C 6.2006 -2.0628 0.0 0
M  V30 13 C 6.1521 1.0071 0.0 0
M  V30 14 C 6.1035 2.5603 0.0 0
M  V30 15 C 7.3534 3.349 0.0 0
M  V30 16 C 7.3048 4.9022 0.0 0
M  V30 17 C 8.6032 2.621 0.0 0
M  V30 END ATOM
M  V30 BEGIN BOND
M  V30 1 2 1 2
M  V30 2 1 2 3
M  V30 3 1 2 4
M  V30 4 1 3 5
M  V30 5 1 4 6
M  V30 6 1 5 7
M  V30 7 1 6 8
M  V30 8 2 7 9
M  V30 9 1 8 10
M  V30 10 1 9 11
M  V30 11 1 9 12
M  V30 12 1 11 13
M  V30 13 1 13 14
M  V30 14 2 14 15
M  V30 15 1 15 16
M  V30 16 1 15 17
M  V30 END BOND
M  V30 END CTAB
M  END
>  <Molecule Name>
neryl valerate

>  <Molecule Name 2>
neryl valerate

>  <Database>
Essential Oil Database

>  <InChI>
InChI=1S/C15H26O2/c1-5-6-10-15(16)17-12-11-14(4)9-7-8-13(2)3/h8,11H,5-7,9-10,12H2,1-4H3/b14-11-

>  <InChI-Key>
CVSWGLSBJFKWMW-KAMYIIQDSA-N

>  <Smiles>
CCCCC(OC/C=C(/C)\CCC=C(C)C)=O

>  <Molecular Formula>
C15H26O2

$$$$
octadecanol
Actelion Java MolfileCreator 2.0

  0  0  0  0  0  0              0 V3000
M  V30 BEGIN CTAB
M  V30 COUNTS 19 18 0 0 0
M  V30 BEGIN ATOM
M  V30 1 O 0.0 0.0 0.0 0
M  V30 2 C 1.284 0.8152 0.0 0
M  V30 3 C 2.5681 0.0815 0.0 0
M  V30 4 C 3.8522 0.8968 0.0 0
M  V30 5 C 5.1363 0.163 0.0 0
M  V30 6 C 6.4204 0.9783 0.0 0
M  V30 7 C 7.7045 0.2445 0.0 0
M  V30 8 C 8.9886 1.0598 0.0 0
M  V30 9 C 10.2727 0.3261 0.0 0
M  V30 10 C 11.5568 1.1414 0.0 0
M  V30 11 C 12.8408 0.4076 0.0 0
M  V30 12 C 14.1249 1.2229 0.0 0
M  V30 13 C 15.409 0.4891 0.0 0
M  V30 14 C 16.6931 1.3044 0.0 0
M  V30 15 C 17.9772 0.5707 0.0 0
M  V30 16 C 19.2613 1.386 0.0 0
M  V30 17 C 20.5454 0.6522 0.0 0
M  V30 18 C 21.8295 1.4675 0.0 0
M  V30 19 C 23.1136 0.7337 0.0 0
M  V30 END ATOM
M  V30 BEGIN BOND
M  V30 1 1 1 2
M  V30 2 1 2 3
M  V30 3 1 3 4
M  V30 4 1 4 5
M  V30 5 1 5 6
M  V30 6 1 6 7
M  V30 7 1 7 8
M  V30 8 1 8 9
M  V30 9 1 9 10
M  V30 10 1 10 11
M  V30 11 1 11 12
M  V30 12 1 12 13
M  V30 13 1 13 14
M  V30 14 1 14 15
M  V30 15 1 15 16
M  V30 16 1 16 17
M  V30 17 1 17 18
M  V30 18 1 18 19
M  V30 END BOND
M  V30 END CTAB
M  END
>  <Molecule Name>
octadecanol

>  <Molecule Name 2>
octadecanol

>  <Database>
Essential Oil Database

>  <InChI>
InChI=1S/C18H38O/c1-2-3-4-5-6-7-8-9-10-11-12-13-14-15-16-17-18-19/h19H,2-18H2,1H3

>  <InChI-Key>
GLDOVTGHNKAZLK-UHFFFAOYSA-N

>  <Smiles>
CCCCCCCCCCCCCCCCCCO

>  <Molecular Formula>
C18H38O

$$$$
chamazulene
Actelion Java MolfileCreator 2.0

  0  0  0  0  0  0              0 V3000
M  V30 BEGIN CTAB
M  V30 COUNTS 14 15 0 0 0
M  V30 BEGIN ATOM
M  V30 1 C 0.0 0.0 0.0 0
M  V30 2 C -1.488 -0.2857 0.0 0
M  V30 3 C 0.6071 1.369 0.0 0
M  V30 4 C 0.8571 -1.0952 0.0 0
M  V30 5 C -2.6785 0.6666 0.0 0
M  V30 6 C -0.0952 2.738 0.0 0
M  V30 7 C 2.2737 -0.8214 0.0 0
M  V30 8 C -2.7261 2.1904 0.0 0
M  V30 9 C -4.1309 0.2499 0.0 0
M  V30 10 C -1.5833 3.119 0.0 0
M  V30 11 C -4.1785 2.7023 0.0 0
M  V30 12 C -5.0356 1.488 0.0 0
M  V30 13 C -4.6428 -1.1071 0.0 0
M  V30 14 C -1.9642 4.607 0.0 0
M  V30 END ATOM
M  V30 BEGIN BOND
M  V30 1 2 1 2
M  V30 2 1 1 3
M  V30 3 1 1 4
M  V30 4 1 2 5
M  V30 5 2 3 6
M  V30 6 1 4 7
M  V30 7 1 5 8
M  V30 8 2 5 9
M  V30 9 1 6 10
M  V30 10 1 8 11
M  V30 11 1 9 12
M  V30 12 1 9 13
M  V30 13 1 10 14
M  V30 14 2 8 10
M  V30 15 2 11 12
M  V30 END BOND
M  V30 END CTAB
M  END
>  <Molecule Name>
chamazulene

>  <Molecule Name 2>
chamazulene

>  <Database>
Essential Oil Database

>  <InChI>
InChI=1S/C14H16/c1-4-12-7-5-10(2)13-8-6-11(3)14(13)9-12/h5-9H,4H2,1-3H3

>  <InChI-Key>
GXGJIOMUZAGVEH-UHFFFAOYSA-N

>  <Smiles>
CCC1=CC2=C(C)C=CC2=C(C)C=C1

>  <Molecular Formula>
C14H16

$$$$
farnesol
Actelion Java MolfileCreator 2.0

  0  0  0  0  0  0              0 V3000
M  V30 BEGIN CTAB
M  V30 COUNTS 16 15 0 0 0
M  V30 BEGIN ATOM
M  V30 1 O 0.0 0.0 0.0 0
M  V30 2 C 0.7085 -1.2369 0.0 0
M  V30 3 C -0.06 -2.4738 0.0 0
M  V30 4 C -1.5972 -2.4258 0.0 0
M  V30 5 C -2.3657 -3.6627 0.0 0
M  V30 6 C -2.3657 -1.0928 0.0 0
M  V30 7 C -3.9029 -3.6147 0.0 0
M  V30 8 C -4.6715 -4.8516 0.0 0
M  V30 9 C -6.2086 -4.8036 0.0 0
M  V30 10 C -6.9892 -6.0405 0.0 0
M  V30 11 C -6.9892 -3.4706 0.0 0
M  V30 12 C -8.5264 -5.9925 0.0 0
M  V30 13 C -9.307 -7.2294 0.0 0
M  V30 14 C -10.8441 -7.1814 0.0 0
M  V30 15 C -11.6247 -8.4183 0.0 0
M  V30 16 C -11.6247 -5.8484 0.0 0
M  V30 END ATOM
M  V30 BEGIN BOND
M  V30 1 1 1 2
M  V30 2 1 2 3
M  V30 3 2 3 4 CFG=2
M  V30 4 1 4 5
M  V30 5 1 4 6
M  V30 6 1 5 7
M  V30 7 1 7 8
M  V30 8 2 8 9 CFG=2
M  V30 9 1 9 10
M  V30 10 1 9 11
M  V30 11 1 10 12
M  V30 12 1 12 13
M  V30 13 2 13 14
M  V30 14 1 14 15
M  V30 15 1 14 16
M  V30 END BOND
M  V30 END CTAB
M  END
>  <Molecule Name>
farnesol

>  <Molecule Name 2>
farnesol

>  <Database>
Essential Oil Database

>  <InChI>
InChI=1S/C15H26O/c1-13(2)7-5-8-14(3)9-6-10-15(4)11-12-16/h7,9,11,16H,5-6,8,10,12H2,1-4H3

>  <InChI-Key>
CRDAMVZIKSXKFV-UHFFFAOYSA-N

>  <Smiles>
CC(C)=CCCC(C)=CCCC(C)=CCO

>  <Molecular Formula>
C15H26O

$$$$
(z)-4-decanal
Actelion Java MolfileCreator 2.0

  0  0  0  0  0  0              0 V3000
M  V30 BEGIN CTAB
M  V30 COUNTS 11 10 0 0 0
M  V30 BEGIN ATOM
M  V30 1 O 0.0 0.0 0.0 0
M  V30 2 C -0.0464 -1.4641 0.0 0
M  V30 3 C 1.2201 -2.1729 0.0 0
M  V30 4 C -1.406 -2.1729 0.0 0
M  V30 5 C 2.4867 -1.3479 0.0 0
M  V30 6 C -2.7656 -1.3479 0.0 0
M  V30 7 C 3.7533 -2.0451 0.0 0
M  V30 8 C -4.1251 -2.0451 0.0 0
M  V30 9 C 5.0199 -1.2201 0.0 0
M  V30 10 C 6.2865 -1.9289 0.0 0
M  V30 11 C 7.5531 -1.1039 0.0 0
M  V30 END ATOM
M  V30 BEGIN BOND
M  V30 1 2 1 2
M  V30 2 1 2 3
M  V30 3 1 2 4
M  V30 4 1 3 5
M  V30 5 1 4 6
M  V30 6 1 5 7
M  V30 7 1 6 8
M  V30 8 1 7 9
M  V30 9 1 9 10
M  V30 10 1 10 11
M  V30 END BOND
M  V30 END CTAB
M  END
>  <Molecule Name>
(z)-4-decanal

>  <Molecule Name 2>
(z)-4-decanal

>  <Database>
Essential Oil Database

>  <InChI>
InChI=1S/C10H20O/c1-3-5-6-7-9-10(11)8-4-2/h3-9H2,1-2H3

>  <InChI-Key>
MKJDUHZPLQYUCB-UHFFFAOYSA-N

>  <Smiles>
CCCCCCC(CCC)=O

>  <Molecular Formula>
C10H20O

$$$$
pyrazine
Actelion Java MolfileCreator 2.0

  0  0  0  0  0  0              0 V3000
M  V30 BEGIN CTAB
M  V30 COUNTS 6 6 0 0 0
M  V30 BEGIN ATOM
M  V30 1 N 0.0 0.0 0.0 0
M  V30 2 C 1.2923 0.8299 0.0 0
M  V30 3 C -0.0474 -1.4938 0.0 0
M  V30 4 C 2.5846 0.1304 0.0 0
M  V30 5 C 1.2449 -2.1933 0.0 0
M  V30 6 N 2.5372 -1.3634 0.0 0
M  V30 END ATOM
M  V30 BEGIN BOND
M  V30 1 2 1 2
M  V30 2 1 1 3
M  V30 3 1 2 4
M  V30 4 2 3 5
M  V30 5 2 4 6
M  V30 6 1 5 6
M  V30 END BOND
M  V30 END CTAB
M  END
>  <Molecule Name>
pyrazine

>  <Molecule Name 2>
pyrazine

>  <Database>
Essential Oil Database

>  <InChI>
InChI=1S/C4H4N2/c1-2-6-4-3-5-1/h1-4H

>  <InChI-Key>
KYQCOXFCLRTKLS-UHFFFAOYSA-N

>  <Smiles>
c1cnccn1

>  <Molecular Formula>
C4H4N2

$$$$
3-methyl-2-octene
Actelion Java MolfileCreator 2.0

  0  0  0  0  0  0              0 V3000
M  V30 BEGIN CTAB
M  V30 COUNTS 9 8 0 0 0
M  V30 BEGIN ATOM
M  V30 1 C 0.0 0.0 0.0 0
M  V30 2 C -1.3631 0.8155 0.0 0
M  V30 3 C 1.2699 0.8155 0.0 0
M  V30 4 C -0.0466 -1.468 0.0 0
M  V30 5 C -2.7263 0.1281 0.0 0
M  V30 6 C 2.5399 0.1281 0.0 0
M  V30 7 C 3.8098 0.9437 0.0 0
M  V30 8 C 5.0798 0.2563 0.0 0
M  V30 9 C 6.3498 1.0718 0.0 0
M  V30 END ATOM
M  V30 BEGIN BOND
M  V30 1 2 1 2 CFG=2
M  V30 2 1 1 3
M  V30 3 1 1 4
M  V30 4 1 2 5
M  V30 5 1 3 6
M  V30 6 1 6 7
M  V30 7 1 7 8
M  V30 8 1 8 9
M  V30 END BOND
M  V30 END CTAB
M  END
>  <Molecule Name>
3-methyl-2-octene

>  <Molecule Name 2>
3-methyl-2-octene

>  <Database>
Essential Oil Database

>  <InChI>
InChI=1S/C9H18/c1-4-6-7-8-9(3)5-2/h5H,4,6-8H2,1-3H3

>  <InChI-Key>
VOKPUAYTTWEUPZ-UHFFFAOYSA-N

>  <Smiles>
CCCCCC(C)=CC

>  <Molecular Formula>
C9H18

$$$$
beta-caryophyllene oxide
Actelion Java MolfileCreator 2.0

  0  0  0  0  0  0              0 V3000
M  V30 BEGIN CTAB
M  V30 COUNTS 16 18 0 0 0
M  V30 BEGIN ATOM
M  V30 1 O 0.0 0.0 0.0 0
M  V30 2 C 1.3956 0.5681 0.0 0 CFG=1
M  V30 3 C 1.0992 -0.9386 0.0 0 CFG=1
M  V30 4 C 2.5195 1.5809 0.0 0
M  V30 5 C 0.5928 1.9514 0.0 0
M  V30 6 C 1.8155 -2.2231 0.0 0
M  V30 7 C 4.0016 1.6179 0.0 0
M  V30 8 C 3.1988 -2.7295 0.0 0
M  V30 9 C 5.1009 0.6792 0.0 0 CFG=1
M  V30 10 C 4.5945 -2.1614 0.0 0
M  V30 11 C 6.5583 0.988 0.0 0
M  V30 12 C 5.3108 -0.7781 0.0 0 CFG=1
M  V30 13 C 5.5084 -3.2853 0.0 0
M  V30 14 C 6.7682 -0.4693 0.0 0
M  V30 15 C 7.9168 1.6426 0.0 0
M  V30 16 C 6.62 2.5689 0.0 0
M  V30 END ATOM
M  V30 BEGIN BOND
M  V30 1 1 1 2
M  V30 2 1 3 1 CFG=1
M  V30 3 1 2 4
M  V30 4 1 2 5 CFG=1
M  V30 5 1 3 6
M  V30 6 1 4 7
M  V30 7 1 6 8
M  V30 8 1 9 7 CFG=1
M  V30 9 1 8 10
M  V30 10 1 9 11
M  V30 11 1 9 12
M  V30 12 2 10 13
M  V30 13 1 11 14
M  V30 14 1 11 15
M  V30 15 1 11 16
M  V30 16 1 2 3
M  V30 17 1 12 10 CFG=3
M  V30 18 1 12 14
M  V30 END BOND
M  V30 BEGIN COLLECTION
M  V30 MDLV30/STEABS ATOMS=(4 2 3 9 12)
M  V30 END COLLECTION
M  V30 END CTAB
M  END
>  <Molecule Name>
beta-caryophyllene oxide

>  <Molecule Name 2>
beta-caryophyllene oxide

>  <Database>
Essential Oil Database

>  <InChI>
InChI=1S/C15H24O/c1-10-5-6-13-15(4,16-13)8-7-12-11(10)9-14(12,2)3/h11-13H,1,5-9H2,2-4H3/t11-,12-,13-,15-/m1/s1

>  <InChI-Key>
NVEQFIOZRFFVFW-RGCMKSIDSA-N

>  <Smiles>
C[C@]1(CC[C@H]2C(C)(C)C[C@@H]22)O[C@@H]1CCC2=C

>  <Molecular Formula>
C15H24O

$$$$
cis-anethole
Actelion Java MolfileCreator 2.0

  0  0  0  0  0  0              0 V3000
M  V30 BEGIN CTAB
M  V30 COUNTS 11 11 0 0 0
M  V30 BEGIN ATOM
M  V30 1 O 0.0 0.0 0.0 0
M  V30 2 C -0.0469 -1.4802 0.0 0
M  V30 3 C -1.3744 0.8223 0.0 0
M  V30 4 C 1.2335 -2.1733 0.0 0
M  V30 5 C -1.4214 -2.1733 0.0 0
M  V30 6 C 1.1865 -3.6535 0.0 0
M  V30 7 C -1.4684 -3.6535 0.0 0
M  V30 8 C -0.1879 -4.3466 0.0 0
M  V30 9 C -0.2349 -5.8269 0.0 0
M  V30 10 C 1.0455 -6.5317 0.0 0
M  V30 11 C 2.326 -5.7094 0.0 0
M  V30 END ATOM
M  V30 BEGIN BOND
M  V30 1 1 1 2
M  V30 2 1 1 3
M  V30 3 2 2 4
M  V30 4 1 2 5
M  V30 5 1 4 6
M  V30 6 2 5 7
M  V30 7 2 6 8
M  V30 8 1 8 9
M  V30 9 2 9 10
M  V30 10 1 10 11
M  V30 11 1 7 8
M  V30 END BOND
M  V30 END CTAB
M  END
>  <Molecule Name>
cis-anethole

>  <Molecule Name 2>
cis-anethole

>  <Database>
Essential Oil Database

>  <InChI>
InChI=1S/C10H12O/c1-3-4-9-5-7-10(11-2)8-6-9/h3-8H,1-2H3/b4-3-

>  <InChI-Key>
RUVINXPYWBROJD-ARJAWSKDSA-N

>  <Smiles>
C/C=C\c(cc1)ccc1OC

>  <Molecular Formula>
C10H12O

$$$$
isoamyl benzoate
Actelion Java MolfileCreator 2.0

  0  0  0  0  0  0              0 V3000
M  V30 BEGIN CTAB
M  V30 COUNTS 14 14 0 0 0
M  V30 BEGIN ATOM
M  V30 1 O 0.0 0.0 0.0 0
M  V30 2 C -0.0482 1.5428 0.0 0
M  V30 3 O 1.1932 2.3262 0.0 0
M  V30 4 C -1.3861 2.3262 0.0 0
M  V30 5 C 2.4347 1.6151 0.0 0
M  V30 6 C -2.724 1.6151 0.0 0
M  V30 7 C -1.4343 3.869 0.0 0
M  V30 8 C 3.6762 2.3865 0.0 0
M  V30 9 C -4.0619 2.3865 0.0 0
M  V30 10 C -2.7722 4.6404 0.0 0
M  V30 11 C 4.9176 1.6753 0.0 0
M  V30 12 C -4.1101 3.9293 0.0 0
M  V30 13 C 6.1591 2.4467 0.0 0
M  V30 14 C 4.8694 0.229 0.0 0
M  V30 END ATOM
M  V30 BEGIN BOND
M  V30 1 2 1 2
M  V30 2 1 2 3
M  V30 3 1 2 4
M  V30 4 1 3 5
M  V30 5 2 4 6
M  V30 6 1 4 7
M  V30 7 1 5 8
M  V30 8 1 6 9
M  V30 9 2 7 10
M  V30 10 1 8 11
M  V30 11 2 9 12
M  V30 12 1 11 13
M  V30 13 1 11 14
M  V30 14 1 10 12
M  V30 END BOND
M  V30 END CTAB
M  END
>  <Molecule Name>
isoamyl benzoate

>  <Molecule Name 2>
isoamyl benzoate

>  <Database>
Essential Oil Database

>  <InChI>
InChI=1S/C12H16O2/c1-10(2)8-9-14-12(13)11-6-4-3-5-7-11/h3-7,10H,8-9H2,1-2H3

>  <InChI-Key>
MLLAPOCBLWUFAP-UHFFFAOYSA-N

>  <Smiles>
CC(C)CCOC(c1ccccc1)=O

>  <Molecular Formula>
C12H16O2

$$$$
isocaryophyllene
Actelion Java MolfileCreator 2.0

  0  0  0  0  0  0              0 V3000
M  V30 BEGIN CTAB
M  V30 COUNTS 15 16 0 0 0
M  V30 BEGIN ATOM
M  V30 1 C 0.0 0.0 0.0 0
M  V30 2 C -0.7778 -1.2325 0.0 0
M  V30 3 C -0.9932 1.1727 0.0 0 CFG=2
M  V30 4 C 1.412 -0.2153 0.0 0
M  V30 5 C -1.041 2.7043 0.0 0 CFG=2
M  V30 6 C -2.5249 1.2205 0.0 0
M  V30 7 C 2.6445 0.5504 0.0 0
M  V30 8 C -2.5727 2.7522 0.0 0
M  V30 9 C -0.1435 3.877 0.0 0
M  V30 10 C 3.1112 1.9864 0.0 0
M  V30 11 C -4.1044 2.8001 0.0 0
M  V30 12 C -2.6206 4.2839 0.0 0
M  V30 13 C 1.2684 4.1882 0.0 0
M  V30 14 C 2.5488 3.4223 0.0 0
M  V30 15 C 3.6258 4.4155 0.0 0
M  V30 END ATOM
M  V30 BEGIN BOND
M  V30 1 2 1 2
M  V30 2 1 3 1 CFG=1
M  V30 3 1 1 4
M  V30 4 1 3 5
M  V30 5 1 3 6
M  V30 6 1 4 7
M  V30 7 1 5 8
M  V30 8 1 5 9 CFG=3
M  V30 9 1 7 10
M  V30 10 1 8 11
M  V30 11 1 8 12
M  V30 12 1 9 13
M  V30 13 2 10 14
M  V30 14 1 14 15
M  V30 15 1 6 8
M  V30 16 1 13 14
M  V30 END BOND
M  V30 BEGIN COLLECTION
M  V30 MDLV30/STEABS ATOMS=(2 3 5)
M  V30 END COLLECTION
M  V30 END CTAB
M  END
>  <Molecule Name>
isocaryophyllene

>  <Molecule Name 2>
isocaryophyllene

>  <Database>
Essential Oil Database

>  <InChI>
InChI=1S/C15H24/c1-11-6-5-7-12(2)13-10-15(3,4)14(13)9-8-11/h6,13-14H,2,5,7-10H2,1,3-4H3/b11-6+/t13-,14-/m1/s1

>  <InChI-Key>
NPNUFJAVOOONJE-GFUGXAQUSA-N

>  <Smiles>
CC(C)(C1)[C@H](CC/C(\C)=C\CC2)[C@H]1C2=C

>  <Molecular Formula>
C15H24

$$$$
trans-m-mentha-2,8-diene
Actelion Java MolfileCreator 2.0

  0  0  0  0  0  0              0 V3000
M  V30 BEGIN CTAB
M  V30 COUNTS 10 10 0 0 0
M  V30 BEGIN ATOM
M  V30 1 C 0.0 0.0 0.0 0
M  V30 2 C -1.3415 -0.713 0.0 0
M  V30 3 C -0.0483 1.547 0.0 0
M  V30 4 C 1.2448 -0.713 0.0 0
M  V30 5 C -1.3899 -2.1634 0.0 0
M  V30 6 C -2.6831 0.0604 0.0 0
M  V30 7 C 1.1965 2.3447 0.0 0 CFG=2
M  V30 8 C 2.4897 0.0604 0.0 0
M  V30 9 C 2.4414 1.6316 0.0 0
M  V30 10 C 1.1481 3.8917 0.0 0
M  V30 END ATOM
M  V30 BEGIN BOND
M  V30 1 1 1 2
M  V30 2 2 1 3
M  V30 3 1 1 4
M  V30 4 2 2 5
M  V30 5 1 2 6
M  V30 6 1 3 7
M  V30 7 1 4 8
M  V30 8 1 7 9
M  V30 9 1 7 10 CFG=1
M  V30 10 1 8 9
M  V30 END BOND
M  V30 BEGIN COLLECTION
M  V30 MDLV30/STERAC1 ATOMS=(1 7)
M  V30 END COLLECTION
M  V30 END CTAB
M  END
>  <Molecule Name>
trans-m-mentha-2,8-diene

>  <Molecule Name 2>
trans-m-mentha-2,8-diene

>  <Database>
Essential Oil Database

>  <InChI>
InChI=1S/C10H16/c1-8(2)10-6-4-5-9(3)7-10/h7,9H,1,4-6H2,2-3H3/t9-/m0/s1

>  <InChI-Key>
UCHKLBIBXHPXJL-VIFPVBQESA-N

>  <Smiles>
CC(CCC1)C=C1C(C)=C

>  <Molecular Formula>
C10H16

$$$$
3-carene
Actelion Java MolfileCreator 2.0

  0  0  0  0  0  0              0 V3000
M  V30 BEGIN CTAB
M  V30 COUNTS 10 11 0 0 0
M  V30 BEGIN ATOM
M  V30 1 C 0.0 0.0 0.0 0
M  V30 2 C -0.0455 -1.4354 0.0 0
M  V30 3 C -1.3328 0.8088 0.0 0
M  V30 4 C 1.2417 0.8088 0.0 0
M  V30 5 C -1.3784 -2.1075 0.0 0
M  V30 6 C -2.6657 0.1139 0.0 0
M  V30 7 C -2.7113 -1.31 0.0 0
M  V30 8 C -3.9986 -0.5696 0.0 0
M  V30 9 C -5.2631 0.3417 0.0 0
M  V30 10 C -5.2631 -1.3898 0.0 0
M  V30 END ATOM
M  V30 BEGIN BOND
M  V30 1 2 1 2
M  V30 2 1 1 3
M  V30 3 1 1 4
M  V30 4 1 2 5
M  V30 5 1 3 6
M  V30 6 1 5 7
M  V30 7 1 6 8
M  V30 8 1 8 9
M  V30 9 1 8 10
M  V30 10 1 6 7
M  V30 11 1 7 8
M  V30 END BOND
M  V30 END CTAB
M  END
>  <Molecule Name>
3-carene

>  <Molecule Name 2>
3-carene

>  <Database>
Essential Oil Database

>  <InChI>
InChI=1S/C10H16/c1-7-4-5-8-9(6-7)10(8,2)3/h4,8-9H,5-6H2,1-3H3

>  <InChI-Key>
BQOFWKZOCNGFEC-UHFFFAOYSA-N

>  <Smiles>
CC1(C)C2C1CC=C(C)C2

>  <Molecular Formula>
C10H16

$$$$
cis-sesquisabinene hydrate
Actelion Java MolfileCreator 2.0

  0  0  0  0  0  0              0 V3000
M  V30 BEGIN CTAB
M  V30 COUNTS 16 17 0 0 0
M  V30 BEGIN ATOM
M  V30 1 O 0.0 0.0 0.0 0
M  V30 2 C -1.3383 -0.7169 0.0 0 CFG=1
M  V30 3 C -2.8081 -1.1352 0.0 0
M  V30 4 C -0.5138 -1.876 0.0 0
M  V30 5 C -2.0075 0.693 0.0 0
M  V30 6 C -2.8559 -2.5811 0.0 0 CFG=1
M  V30 7 C -4.1464 -1.8521 0.0 0
M  V30 8 C -1.4339 -3.0351 0.0 0
M  V30 9 C -3.5251 -3.8955 0.0 0
M  V30 10 C -5.0546 -4.003 0.0 0
M  V30 11 C -2.7005 -5.0546 0.0 0
M  V30 12 C -5.7238 -5.3175 0.0 0
M  V30 13 C -7.2533 -5.425 0.0 0
M  V30 14 C -8.1734 -4.1703 0.0 0
M  V30 15 C -9.703 -4.2779 0.0 0
M  V30 16 C -7.5999 -2.7603 0.0 0
M  V30 END ATOM
M  V30 BEGIN BOND
M  V30 1 1 2 1 CFG=3
M  V30 2 1 2 3
M  V30 3 1 2 4
M  V30 4 1 2 5
M  V30 5 1 3 6
M  V30 6 1 3 7
M  V30 7 1 4 8
M  V30 8 1 6 9 CFG=1
M  V30 9 1 9 10
M  V30 10 1 9 11
M  V30 11 1 10 12
M  V30 12 1 12 13
M  V30 13 2 13 14
M  V30 14 1 14 15
M  V30 15 1 14 16
M  V30 16 1 6 7
M  V30 17 1 6 8
M  V30 END BOND
M  V30 BEGIN COLLECTION
M  V30 MDLV30/STEABS ATOMS=(2 2 6)
M  V30 END COLLECTION
M  V30 END CTAB
M  END
>  <Molecule Name>
cis-sesquisabinene hydrate

>  <Molecule Name 2>
cis-sesquisabinene hydrate

>  <Database>
Essential Oil Database

>  <InChI>
InChI=1S/C15H26O/c1-11(2)6-5-7-12(3)15-9-8-14(4,16)13(15)10-15/h6,12-13,16H,5,7-10H2,1-4H3/t12?,13?,14-,15-/m1/s1

>  <InChI-Key>
IRDFGGRWKUKANK-NEXFUWMNSA-N

>  <Smiles>
CC(CCC=C(C)C)[C@](C1)(CC2)C1[C@]2(C)O

>  <Molecular Formula>
C15H26O

$$$$
daucol
Actelion Java MolfileCreator 2.0

  0  0  0  0  0  0              0 V3000
M  V30 BEGIN CTAB
M  V30 COUNTS 17 19 0 0 0
M  V30 BEGIN ATOM
M  V30 1 O 0.0 0.0 0.0 0
M  V30 2 C -1.075 -0.697 0.0 0 CFG=2
M  V30 3 C 1.1104 0.7088 0.0 0 CFG=2
M  V30 4 C -1.9019 0.7324 0.0 0 CFG=1
M  V30 5 C -2.2445 -1.6657 0.0 0 CFG=1
M  V30 6 C 0.1772 -1.5948 0.0 0
M  V30 7 C 0.3189 2.1028 0.0 0 CFG=2
M  V30 8 C 1.4885 -0.7324 0.0 0
M  V30 9 C 2.4336 1.3231 0.0 0
M  V30 10 C -1.2404 2.1618 0.0 0
M  V30 11 C -3.4141 0.5079 0.0 0
M  V30 12 C -2.8352 1.961 0.0 0
M  V30 13 C -2.0791 -3.0833 0.0 0
M  V30 14 C -3.6267 -0.9569 0.0 0
M  V30 15 O 1.0514 3.4141 0.0 0
M  V30 16 C -3.2841 -3.9457 0.0 0
M  V30 17 C -0.756 -3.5913 0.0 0
M  V30 END ATOM
M  V30 BEGIN BOND
M  V30 1 1 2 1 CFG=1
M  V30 2 1 1 3
M  V30 3 1 2 4
M  V30 4 1 2 5
M  V30 5 1 2 6
M  V30 6 1 3 7
M  V30 7 1 3 8
M  V30 8 1 3 9 CFG=1
M  V30 9 1 4 10
M  V30 10 1 4 11
M  V30 11 1 4 12 CFG=1
M  V30 12 1 5 13 CFG=1
M  V30 13 1 5 14
M  V30 14 1 7 15 CFG=3
M  V30 15 1 13 16
M  V30 16 1 13 17
M  V30 17 1 6 8
M  V30 18 1 7 10
M  V30 19 1 11 14
M  V30 END BOND
M  V30 BEGIN COLLECTION
M  V30 MDLV30/STEABS ATOMS=(5 2 3 4 5 7)
M  V30 END COLLECTION
M  V30 END CTAB
M  END
>  <Molecule Name>
daucol

>  <Molecule Name 2>
daucol

>  <Database>
Essential Oil Database

>  <InChI>
InChI=1S/C15H26O2/c1-10(2)11-5-6-13(3)9-12(16)14(4)7-8-15(11,13)17-14/h10-12,16H,5-9H2,1-4H3/t11-,12+,13-,14+,15+/m1/s1

>  <InChI-Key>
VLIUMVVQGMLOJG-SEBNEYGDSA-N

>  <Smiles>
CC(C)[C@@H](CC[C@]1(C)C2)[C@]1(CC1)O[C@]1(C)[C@H]2O

>  <Molecular Formula>
C15H26O2

$$$$
benzyl isovalerate
Actelion Java MolfileCreator 2.0

  0  0  0  0  0  0              0 V3000
M  V30 BEGIN CTAB
M  V30 COUNTS 14 14 0 0 0
M  V30 BEGIN ATOM
M  V30 1 O 0.0 0.0 0.0 0
M  V30 2 C -0.0491 -1.4731 0.0 0
M  V30 3 O 1.2153 -2.1974 0.0 0
M  V30 4 C -1.4117 -2.1974 0.0 0
M  V30 5 C 2.4798 -1.3994 0.0 0
M  V30 6 C -2.7744 -1.3994 0.0 0
M  V30 7 C 3.7442 -2.1238 0.0 0
M  V30 8 C -4.1371 -2.1238 0.0 0
M  V30 9 C -2.8235 0.1718 0.0 0
M  V30 10 C 5.0087 -1.3135 0.0 0
M  V30 11 C 3.6951 -3.5969 0.0 0
M  V30 12 C 6.2731 -2.0378 0.0 0
M  V30 13 C 4.9596 -4.3335 0.0 0
M  V30 14 C 6.224 -3.511 0.0 0
M  V30 END ATOM
M  V30 BEGIN BOND
M  V30 1 2 1 2
M  V30 2 1 2 3
M  V30 3 1 2 4
M  V30 4 1 3 5
M  V30 5 1 4 6
M  V30 6 1 5 7
M  V30 7 1 6 8
M  V30 8 1 6 9
M  V30 9 2 7 10
M  V30 10 1 7 11
M  V30 11 1 10 12
M  V30 12 2 11 13
M  V30 13 2 12 14
M  V30 14 1 13 14
M  V30 END BOND
M  V30 END CTAB
M  END
>  <Molecule Name>
benzyl isovalerate

>  <Molecule Name 2>
benzyl isovalerate

>  <Database>
Essential Oil Database

>  <InChI>
InChI=1S/C12H16O2/c1-10(2)8-12(13)14-9-11-6-4-3-5-7-11/h3-7,10H,8-9H2,1-2H3

>  <InChI-Key>
HVJKZICIMIWFCP-UHFFFAOYSA-N

>  <Smiles>
CC(C)CC(OCc1ccccc1)=O

>  <Molecular Formula>
C12H16O2

$$$$
(z)-4-octenol
Actelion Java MolfileCreator 2.0

  0  0  0  0  0  0              0 V3000
M  V30 BEGIN CTAB
M  V30 COUNTS 9 8 0 0 0
M  V30 BEGIN ATOM
M  V30 1 O 0.0 0.0 0.0 0
M  V30 2 C -1.5161 0.0473 0.0 0
M  V30 3 C -2.286 1.3621 0.0 0
M  V30 4 C -3.8021 1.4095 0.0 0
M  V30 5 C -4.572 2.7243 0.0 0
M  V30 6 C -6.0882 2.7716 0.0 0
M  V30 7 C -6.8581 1.5516 0.0 0
M  V30 8 C -8.3742 1.599 0.0 0
M  V30 9 C -9.1441 0.379 0.0 0
M  V30 END ATOM
M  V30 BEGIN BOND
M  V30 1 1 1 2
M  V30 2 1 2 3
M  V30 3 1 3 4
M  V30 4 1 4 5
M  V30 5 2 5 6
M  V30 6 1 6 7
M  V30 7 1 7 8
M  V30 8 1 8 9
M  V30 END BOND
M  V30 END CTAB
M  END
>  <Molecule Name>
(z)-4-octenol

>  <Molecule Name 2>
(z)-4-octenol

>  <Database>
Essential Oil Database

>  <InChI>
InChI=1S/C8H16O/c1-2-3-4-5-6-7-8-9/h4-5,9H,2-3,6-8H2,1H3/b5-4-

>  <InChI-Key>
OZQBPZSICOOLGU-PLNGDYQASA-N

>  <Smiles>
CCC/C=C\CCCO

>  <Molecular Formula>
C8H16O

$$$$
3-phenylpropylacetate
Actelion Java MolfileCreator 2.0

  0  0  0  0  0  0              0 V3000
M  V30 BEGIN CTAB
M  V30 COUNTS 13 13 0 0 0
M  V30 BEGIN ATOM
M  V30 1 O 0.0 0.0 0.0 0
M  V30 2 C -0.0472 -1.4898 0.0 0
M  V30 3 O -1.4307 -2.1874 0.0 0 CHG=-1
M  V30 4 C 1.2415 -2.1874 0.0 0
M  V30 5 C 2.5303 -1.3597 0.0 0
M  V30 6 C 3.8192 -2.0574 0.0 0
M  V30 7 C 5.108 -1.2297 0.0 0
M  V30 8 C 6.3968 -1.9273 0.0 0
M  V30 9 C 7.6857 -1.0996 0.0 0
M  V30 10 C 6.3495 -3.4171 0.0 0
M  V30 11 C 8.9745 -1.7972 0.0 0
M  V30 12 C 7.6384 -4.1384 0.0 0
M  V30 13 C 8.9272 -3.2871 0.0 0
M  V30 END ATOM
M  V30 BEGIN BOND
M  V30 1 2 1 2
M  V30 2 1 2 3
M  V30 3 1 2 4
M  V30 4 1 4 5
M  V30 5 1 5 6
M  V30 6 1 6 7
M  V30 7 1 7 8
M  V30 8 2 8 9
M  V30 9 1 8 10
M  V30 10 1 9 11
M  V30 11 2 10 12
M  V30 12 2 11 13
M  V30 13 1 12 13
M  V30 END BOND
M  V30 END CTAB
M  END
>  <Molecule Name>
3-phenylpropylacetate

>  <Molecule Name 2>
3-phenylpropylacetate

>  <Database>
Essential Oil Database

>  <InChI>
InChI=1S/C11H14O2/c12-11(13)9-5-4-8-10-6-2-1-3-7-10/h1-3,6-7H,4-5,8-9H2,(H,12,13)/p-1

>  <InChI-Key>
BYHDDXPKOZIZRV-UHFFFAOYSA-M

>  <Smiles>
[O-]C(CCCCc1ccccc1)=O

>  <Molecular Formula>
C11H13O2

$$$$
amyl isovalerate
Actelion Java MolfileCreator 2.0

  0  0  0  0  0  0              0 V3000
M  V30 BEGIN CTAB
M  V30 COUNTS 12 11 0 0 0
M  V30 BEGIN ATOM
M  V30 1 O 0.0 0.0 0.0 0
M  V30 2 C -0.0488 -1.4643 0.0 0
M  V30 3 O 1.2081 -2.1965 0.0 0
M  V30 4 C -1.4033 -2.1965 0.0 0
M  V30 5 C 2.465 -1.4033 0.0 0
M  V30 6 C -2.7579 -1.4033 0.0 0
M  V30 7 C 3.7219 -2.1355 0.0 0
M  V30 8 C -4.1124 -2.1355 0.0 0
M  V30 9 C -2.8067 0.1586 0.0 0
M  V30 10 C 4.9788 -1.3423 0.0 0
M  V30 11 C 6.2358 -2.0745 0.0 0
M  V30 12 C 7.4927 -1.2813 0.0 0
M  V30 END ATOM
M  V30 BEGIN BOND
M  V30 1 2 1 2
M  V30 2 1 2 3
M  V30 3 1 2 4
M  V30 4 1 3 5
M  V30 5 1 4 6
M  V30 6 1 5 7
M  V30 7 1 6 8
M  V30 8 1 6 9
M  V30 9 1 7 10
M  V30 10 1 10 11
M  V30 11 1 11 12
M  V30 END BOND
M  V30 END CTAB
M  END
>  <Molecule Name>
amyl isovalerate

>  <Molecule Name 2>
amyl isovalerate

>  <Database>
Essential Oil Database

>  <InChI>
InChI=1S/C10H20O2/c1-4-5-6-7-12-10(11)8-9(2)3/h9H,4-8H2,1-3H3

>  <InChI-Key>
QURFFFCYNQXLCU-UHFFFAOYSA-N

>  <Smiles>
CCCCCOC(CC(C)C)=O

>  <Molecular Formula>
C10H20O2

$$$$
(z)-4-octenyl-2-methylbutyrate
Actelion Java MolfileCreator 2.0

  0  0  0  0  0  0              0 V3000
M  V30 BEGIN CTAB
M  V30 COUNTS 15 14 0 0 0
M  V30 BEGIN ATOM
M  V30 1 O 0.0 0.0 0.0 0
M  V30 2 C -1.3669 -0.6893 0.0 0
M  V30 3 O -2.7339 0.1168 0.0 0 CHG=-1
M  V30 4 C -1.4137 -2.1614 0.0 0 CFG=2
M  V30 5 C -2.7807 -2.8625 0.0 0
M  V30 6 C -0.1402 -2.8625 0.0 0
M  V30 7 C -2.8274 -4.3346 0.0 0
M  V30 8 C -4.1944 -5.0707 0.0 0
M  V30 9 C -4.2411 -6.5428 0.0 0
M  V30 10 C -2.9676 -7.2439 0.0 0
M  V30 11 C -1.6941 -6.4143 0.0 0
M  V30 12 C -0.4206 -7.1153 0.0 0
M  V30 13 C 0.8529 -6.2858 0.0 0
M  V30 14 C 2.1264 -6.9868 0.0 0
M  V30 15 C 3.3999 -6.1573 0.0 0
M  V30 END ATOM
M  V30 BEGIN BOND
M  V30 1 2 1 2
M  V30 2 1 2 3
M  V30 3 1 2 4
M  V30 4 1 4 5
M  V30 5 1 4 6 CFG=1
M  V30 6 1 5 7
M  V30 7 1 7 8
M  V30 8 2 8 9
M  V30 9 1 9 10
M  V30 10 1 10 11
M  V30 11 1 11 12
M  V30 12 1 12 13
M  V30 13 1 13 14
M  V30 14 1 14 15
M  V30 END BOND
M  V30 BEGIN COLLECTION
M  V30 MDLV30/STERAC1 ATOMS=(1 4)
M  V30 END COLLECTION
M  V30 END CTAB
M  END
>  <Molecule Name>
(z)-4-octenyl-2-methylbutyrate

>  <Molecule Name 2>
(z)-4-octenyl-2-methylbutyrate

>  <Database>
Essential Oil Database

>  <InChI>
InChI=1S/C13H24O2/c1-3-4-5-6-7-8-9-10-11-12(2)13(14)15/h8-9,12H,3-7,10-11H2,1-2H3,(H,14,15)/p-1/b9-8-/t12-/m0/s1

>  <InChI-Key>
ZSICJEOGKPXHQV-LAUAKBEESA-M

>  <Smiles>
CCCCCC/C=C\CCC(C)C([O-])=O

>  <Molecular Formula>
C13H23O2

$$$$
(z)-4-octenyl butyrate
Actelion Java MolfileCreator 2.0

  0  0  0  0  0  0              0 V3000
M  V30 BEGIN CTAB
M  V30 COUNTS 14 13 0 0 0
M  V30 BEGIN ATOM
M  V30 1 O 0.0 0.0 0.0 0
M  V30 2 C -0.0486 -1.4602 0.0 0
M  V30 3 O 1.2046 -2.1903 0.0 0
M  V30 4 C -1.3993 -2.1903 0.0 0
M  V30 5 C 2.458 -1.3993 0.0 0
M  V30 6 C -2.75 -1.3993 0.0 0
M  V30 7 C 3.7113 -2.1294 0.0 0
M  V30 8 C -4.1007 -2.1294 0.0 0
M  V30 9 C 4.9647 -1.3385 0.0 0
M  V30 10 C 6.218 -2.0686 0.0 0
M  V30 11 C 7.4714 -1.2776 0.0 0
M  V30 12 C 7.4227 0.2798 0.0 0
M  V30 13 C 8.6761 1.0829 0.0 0
M  V30 14 C 8.6274 2.6405 0.0 0
M  V30 END ATOM
M  V30 BEGIN BOND
M  V30 1 2 1 2
M  V30 2 1 2 3
M  V30 3 1 2 4
M  V30 4 1 3 5
M  V30 5 1 4 6
M  V30 6 1 5 7
M  V30 7 1 6 8
M  V30 8 1 7 9
M  V30 9 1 9 10
M  V30 10 2 10 11
M  V30 11 1 11 12
M  V30 12 1 12 13
M  V30 13 1 13 14
M  V30 END BOND
M  V30 END CTAB
M  END
>  <Molecule Name>
(z)-4-octenyl butyrate

>  <Molecule Name 2>
(z)-4-octenyl butyrate

>  <Database>
Essential Oil Database

>  <InChI>
InChI=1S/C12H22O2/c1-3-5-6-7-8-9-11-14-12(13)10-4-2/h6-7H,3-5,8-11H2,1-2H3/b7-6-

>  <InChI-Key>
ALDNKJSWCRXURS-SREVYHEPSA-N

>  <Smiles>
CCC/C=C\CCCOC(CCC)=O

>  <Molecular Formula>
C12H22O2

$$$$
butyl benzoate
Actelion Java MolfileCreator 2.0

  0  0  0  0  0  0              0 V3000
M  V30 BEGIN CTAB
M  V30 COUNTS 13 13 0 0 0
M  V30 BEGIN ATOM
M  V30 1 O 0.0 0.0 0.0 0
M  V30 2 C -0.048 1.5366 0.0 0
M  V30 3 O 1.1885 2.317 0.0 0
M  V30 4 C -1.3806 2.317 0.0 0
M  V30 5 C 2.425 1.6087 0.0 0
M  V30 6 C -2.7132 1.6087 0.0 0
M  V30 7 C -1.4286 3.8537 0.0 0
M  V30 8 C 3.6616 2.389 0.0 0
M  V30 9 C -4.0457 2.389 0.0 0
M  V30 10 C -2.7612 4.634 0.0 0
M  V30 11 C 4.8981 1.6807 0.0 0
M  V30 12 C -4.0938 3.9257 0.0 0
M  V30 13 C 6.1347 2.461 0.0 0
M  V30 END ATOM
M  V30 BEGIN BOND
M  V30 1 2 1 2
M  V30 2 1 2 3
M  V30 3 1 2 4
M  V30 4 1 3 5
M  V30 5 2 4 6
M  V30 6 1 4 7
M  V30 7 1 5 8
M  V30 8 1 6 9
M  V30 9 2 7 10
M  V30 10 1 8 11
M  V30 11 2 9 12
M  V30 12 1 11 13
M  V30 13 1 10 12
M  V30 END BOND
M  V30 END CTAB
M  END
>  <Molecule Name>
butyl benzoate

>  <Molecule Name 2>
butyl benzoate

>  <Database>
Essential Oil Database

>  <InChI>
InChI=1S/C11H14O2/c1-2-3-9-13-11(12)10-7-5-4-6-8-10/h4-8H,2-3,9H2,1H3

>  <InChI-Key>
XSIFPSYPOVKYCO-UHFFFAOYSA-N

>  <Smiles>
CCCCOC(c1ccccc1)=O

>  <Molecular Formula>
C11H14O2

$$$$
fenchol
Actelion Java MolfileCreator 2.0

  0  0  0  0  0  0              0 V3000
M  V30 BEGIN CTAB
M  V30 COUNTS 11 12 0 0 0
M  V30 BEGIN ATOM
M  V30 1 O 0.0 0.0 0.0 0
M  V30 2 C 1.2618 -0.7227 0.0 0
M  V30 3 C 2.5236 0.0612 0.0 0
M  V30 4 C 1.2128 -2.1928 0.0 0
M  V30 5 C 2.0825 -1.4088 0.0 0
M  V30 6 C 3.7854 -0.6615 0.0 0
M  V30 7 C 2.4746 1.6293 0.0 0
M  V30 8 C 2.4746 -2.9156 0.0 0
M  V30 9 C 0.637 -3.5649 0.0 0
M  V30 10 C -0.3307 -1.8743 0.0 0
M  V30 11 C 3.7364 -2.1315 0.0 0
M  V30 END ATOM
M  V30 BEGIN BOND
M  V30 1 1 1 2
M  V30 2 1 2 3
M  V30 3 1 2 4
M  V30 4 1 3 5
M  V30 5 1 3 6
M  V30 6 1 3 7
M  V30 7 1 4 8
M  V30 8 1 4 9
M  V30 9 1 4 10
M  V30 10 1 6 11
M  V30 11 1 5 8
M  V30 12 1 8 11
M  V30 END BOND
M  V30 END CTAB
M  END
>  <Molecule Name>
fenchol

>  <Molecule Name 2>
fenchol

>  <Database>
Essential Oil Database

>  <InChI>
InChI=1S/C10H18O/c1-9(2)7-4-5-10(3,6-7)8(9)11/h7-8,11H,4-6H2,1-3H3

>  <InChI-Key>
IAIHUHQCLTYTSF-UHFFFAOYSA-N

>  <Smiles>
CC(C)(C1CC2(C)CC1)C2O

>  <Molecular Formula>
C10H18O

$$$$
fenchyl acetate
Actelion Java MolfileCreator 2.0

  0  0  0  0  0  0              0 V3000
M  V30 BEGIN CTAB
M  V30 COUNTS 14 15 0 0 0
M  V30 BEGIN ATOM
M  V30 1 O 0.0 0.0 0.0 0
M  V30 2 C -0.0484 -1.4522 0.0 0
M  V30 3 O 1.198 -2.1662 0.0 0
M  V30 4 C -1.3917 -2.1662 0.0 0
M  V30 5 C 2.4445 -1.3796 0.0 0
M  V30 6 C 3.691 -2.0936 0.0 0 CFG=2
M  V30 7 C 2.3961 0.1694 0.0 0
M  V30 8 C 3.2554 -0.5445 0.0 0
M  V30 9 C 4.9375 -1.307 0.0 0
M  V30 10 C 3.6426 -3.5458 0.0 0
M  V30 11 C 3.6426 0.9439 0.0 0 CFG=1
M  V30 12 C 1.5732 1.4885 0.0 0
M  V30 13 C 0.8471 0.2662 0.0 0
M  V30 14 C 4.8891 0.242 0.0 0
M  V30 END ATOM
M  V30 BEGIN BOND
M  V30 1 2 1 2
M  V30 2 1 2 3
M  V30 3 1 2 4
M  V30 4 1 3 5
M  V30 5 1 5 6
M  V30 6 1 5 7
M  V30 7 1 6 8
M  V30 8 1 6 9
M  V30 9 1 6 10 CFG=1
M  V30 10 1 7 11
M  V30 11 1 7 12
M  V30 12 1 7 13
M  V30 13 1 9 14
M  V30 14 1 11 8 CFG=1
M  V30 15 1 11 14
M  V30 END BOND
M  V30 BEGIN COLLECTION
M  V30 MDLV30/STEABS ATOMS=(2 6 11)
M  V30 END COLLECTION
M  V30 END CTAB
M  END
>  <Molecule Name>
fenchyl acetate

>  <Molecule Name 2>
fenchyl acetate

>  <Database>
Essential Oil Database

>  <InChI>
InChI=1S/C12H20O2/c1-8(13)14-10-11(2,3)9-5-6-12(10,4)7-9/h9-10H,5-7H2,1-4H3/t9-,10?,12+/m1/s1

>  <InChI-Key>
JUWUWIGZUVEFQB-MAZPRZIYSA-N

>  <Smiles>
CC(C)([C@H]1C[C@]2(C)CC1)C2OC(C)=O

>  <Molecular Formula>
C12H20O2

$$$$
cis-muurola-3,5-diene
Actelion Java MolfileCreator 2.0

  0  0  0  0  0  0              0 V3000
M  V30 BEGIN CTAB
M  V30 COUNTS 15 16 0 0 0
M  V30 BEGIN ATOM
M  V30 1 C 0.0 0.0 0.0 0
M  V30 2 C 1.2428 -0.7239 0.0 0
M  V30 3 C -0.0482 1.5444 0.0 0 CFG=2
M  V30 4 C -1.3393 -0.7239 0.0 0 CFG=1
M  V30 5 C 2.4856 0.0603 0.0 0
M  V30 6 C -1.3876 2.3287 0.0 0 CFG=1
M  V30 7 C 1.1945 2.3287 0.0 0
M  V30 8 C -1.3876 -2.1719 0.0 0
M  V30 9 C -2.6786 0.0603 0.0 0
M  V30 10 C 2.4373 1.6047 0.0 0
M  V30 11 C 3.7284 -0.6636 0.0 0
M  V30 12 C -2.7269 1.6168 0.0 0
M  V30 13 C -1.4358 3.8732 0.0 0
M  V30 14 C -0.1447 -2.8958 0.0 0
M  V30 15 C -2.7269 -2.8958 0.0 0
M  V30 END ATOM
M  V30 BEGIN BOND
M  V30 1 2 1 2
M  V30 2 1 1 3
M  V30 3 1 1 4
M  V30 4 1 2 5
M  V30 5 1 3 6
M  V30 6 1 3 7 CFG=3
M  V30 7 1 4 8 CFG=1
M  V30 8 1 4 9
M  V30 9 2 5 10
M  V30 10 1 5 11
M  V30 11 1 6 12
M  V30 12 1 6 13 CFG=1
M  V30 13 1 8 14
M  V30 14 1 8 15
M  V30 15 1 7 10
M  V30 16 1 9 12
M  V30 END BOND
M  V30 BEGIN COLLECTION
M  V30 MDLV30/STEABS ATOMS=(3 3 4 6)
M  V30 END COLLECTION
M  V30 END CTAB
M  END
>  <Molecule Name>
cis-muurola-3,5-diene

>  <Molecule Name 2>
cis-muurola-3,5-diene

>  <Database>
Essential Oil Database

>  <InChI>
InChI=1S/C15H24/c1-10(2)13-8-6-12(4)14-7-5-11(3)9-15(13)14/h5,9-10,12-14H,6-8H2,1-4H3/t12-,13-,14+/m1/s1

>  <InChI-Key>
JOCWPECWTZZSSX-MCIONIFRSA-N

>  <Smiles>
CC(C)[C@@H]1C2=CC(C)=CC[C@H]2[C@H](C)CC1

>  <Molecular Formula>
C15H24

$$$$
cis-muurola-4(14),5-diene
Actelion Java MolfileCreator 2.0

  0  0  0  0  0  0              0 V3000
M  V30 BEGIN CTAB
M  V30 COUNTS 15 16 0 0 0
M  V30 BEGIN ATOM
M  V30 1 C 0.0 0.0 0.0 0
M  V30 2 C 1.2428 -0.7239 0.0 0
M  V30 3 C -0.0482 1.5444 0.0 0 CFG=2
M  V30 4 C -1.3393 -0.7239 0.0 0 CFG=1
M  V30 5 C 2.4856 0.0603 0.0 0
M  V30 6 C -1.3876 2.3287 0.0 0 CFG=1
M  V30 7 C 1.1945 2.3287 0.0 0
M  V30 8 C -1.3876 -2.1719 0.0 0
M  V30 9 C -2.6786 0.0603 0.0 0
M  V30 10 C 3.7284 -0.6636 0.0 0
M  V30 11 C 2.4373 1.6047 0.0 0
M  V30 12 C -2.7269 1.6168 0.0 0
M  V30 13 C -1.4358 3.8732 0.0 0
M  V30 14 C -0.1447 -2.8958 0.0 0
M  V30 15 C -2.7269 -2.8958 0.0 0
M  V30 END ATOM
M  V30 BEGIN BOND
M  V30 1 2 1 2
M  V30 2 1 1 3
M  V30 3 1 1 4
M  V30 4 1 2 5
M  V30 5 1 3 6
M  V30 6 1 3 7 CFG=3
M  V30 7 1 4 8 CFG=1
M  V30 8 1 4 9
M  V30 9 2 5 10
M  V30 10 1 5 11
M  V30 11 1 6 12
M  V30 12 1 6 13 CFG=1
M  V30 13 1 8 14
M  V30 14 1 8 15
M  V30 15 1 7 11
M  V30 16 1 9 12
M  V30 END BOND
M  V30 BEGIN COLLECTION
M  V30 MDLV30/STEABS ATOMS=(3 3 4 6)
M  V30 END COLLECTION
M  V30 END CTAB
M  END
>  <Molecule Name>
cis-muurola-4(14),5-diene

>  <Molecule Name 2>
cis-muurola-4(14),5-diene

>  <Database>
Essential Oil Database

>  <InChI>
InChI=1S/C15H24/c1-10(2)13-8-6-12(4)14-7-5-11(3)9-15(13)14/h9-10,12-14H,3,5-8H2,1-2,4H3/t12-,13-,14+/m1/s1

>  <InChI-Key>
RNDFUOKDULDZPR-MCIONIFRSA-N

>  <Smiles>
CC(C)[C@@H](CC[C@@H](C)[C@@H]1CC2)C1=CC2=C

>  <Molecular Formula>
C15H24

$$$$
trans-beta-ocimene
Actelion Java MolfileCreator 2.0

  0  0  0  0  0  0              0 V3000
M  V30 BEGIN CTAB
M  V30 COUNTS 10 9 0 0 0
M  V30 BEGIN ATOM
M  V30 1 C 0.0 0.0 0.0 0
M  V30 2 C -0.8199 -1.2767 0.0 0
M  V30 3 C 1.4758 0.0468 0.0 0
M  V30 4 C -0.8199 1.3704 0.0 0
M  V30 5 C -0.1288 -2.5534 0.0 0
M  V30 6 C 2.1669 1.4173 0.0 0
M  V30 7 C 3.6428 1.4641 0.0 0
M  V30 8 C 4.3339 0.1874 0.0 0
M  V30 9 C 5.8097 0.2342 0.0 0
M  V30 10 C 3.5139 -1.0893 0.0 0
M  V30 END ATOM
M  V30 BEGIN BOND
M  V30 1 1 1 2
M  V30 2 2 1 3
M  V30 3 1 1 4
M  V30 4 2 2 5
M  V30 5 1 3 6
M  V30 6 1 6 7
M  V30 7 2 7 8
M  V30 8 1 8 9
M  V30 9 1 8 10
M  V30 END BOND
M  V30 END CTAB
M  END
>  <Molecule Name>
trans-beta-ocimene

>  <Molecule Name 2>
trans-beta-ocimene

>  <Database>
Essential Oil Database

>  <InChI>
InChI=1S/C10H16/c1-5-10(4)8-6-7-9(2)3/h5,7-8H,1,6H2,2-4H3/b10-8+

>  <InChI-Key>
IHPKGUQCSIINRJ-CSKARUKUSA-N

>  <Smiles>
CC(C)=CC/C=C(\C)/C=C

>  <Molecular Formula>
C10H16

$$$$
trans-muurola-4(14),5-diene
Actelion Java MolfileCreator 2.0

  0  0  0  0  0  0              0 V3000
M  V30 BEGIN CTAB
M  V30 COUNTS 15 16 0 0 0
M  V30 BEGIN ATOM
M  V30 1 C 0.0 0.0 0.0 0
M  V30 2 C 1.2428 -0.7239 0.0 0
M  V30 3 C -0.0482 1.5444 0.0 0
M  V30 4 C -1.3393 -0.7239 0.0 0 CFG=1
M  V30 5 C 2.4856 0.0603 0.0 0
M  V30 6 C -1.3876 2.3287 0.0 0 CFG=2
M  V30 7 C 1.1945 2.3287 0.0 0
M  V30 8 C -1.3876 -2.1719 0.0 0
M  V30 9 C -2.6786 0.0603 0.0 0
M  V30 10 C 3.7284 -0.6636 0.0 0
M  V30 11 C 2.4373 1.6047 0.0 0
M  V30 12 C -2.7269 1.6168 0.0 0
M  V30 13 C -1.4358 3.8732 0.0 0
M  V30 14 C -0.1447 -2.8958 0.0 0
M  V30 15 C -2.7269 -2.8958 0.0 0
M  V30 END ATOM
M  V30 BEGIN BOND
M  V30 1 2 1 2
M  V30 2 1 1 3
M  V30 3 1 1 4
M  V30 4 1 2 5
M  V30 5 1 3 6
M  V30 6 1 3 7
M  V30 7 1 4 8 CFG=1
M  V30 8 1 4 9
M  V30 9 2 5 10
M  V30 10 1 5 11
M  V30 11 1 6 12
M  V30 12 1 6 13 CFG=3
M  V30 13 1 8 14
M  V30 14 1 8 15
M  V30 15 1 7 11
M  V30 16 1 9 12
M  V30 END BOND
M  V30 BEGIN COLLECTION
M  V30 MDLV30/STEABS ATOMS=(2 4 6)
M  V30 END COLLECTION
M  V30 END CTAB
M  END
>  <Molecule Name>
trans-muurola-4(14),5-diene

>  <Molecule Name 2>
trans-muurola-4(14),5-diene

>  <Database>
Essential Oil Database

>  <InChI>
InChI=1S/C15H24/c1-10(2)13-8-6-12(4)14-7-5-11(3)9-15(13)14/h9-10,12-14H,3,5-8H2,1-2,4H3/t12-,13+,14?/m0/s1

>  <InChI-Key>
RNDFUOKDULDZPR-WLDKUNSKSA-N

>  <Smiles>
CC(C)[C@@H](CC[C@H](C)C1CC2)C1=CC2=C

>  <Molecular Formula>
C15H24

$$$$
1-tetradecene
Actelion Java MolfileCreator 2.0

  0  0  0  0  0  0              0 V3000
M  V30 BEGIN CTAB
M  V30 COUNTS 14 13 0 0 0
M  V30 BEGIN ATOM
M  V30 1 C 0.0 0.0 0.0 0
M  V30 2 C -1.3777 -0.7104 0.0 0
M  V30 3 C 1.2916 -0.7104 0.0 0
M  V30 4 C 2.5833 0.0861 0.0 0
M  V30 5 C 3.8749 -0.6243 0.0 0
M  V30 6 C 5.1666 0.1722 0.0 0
M  V30 7 C 6.4582 -0.5381 0.0 0
M  V30 8 C 7.7499 0.2583 0.0 0
M  V30 9 C 9.0416 -0.452 0.0 0
M  V30 10 C 10.3332 0.3444 0.0 0
M  V30 11 C 11.6249 -0.3659 0.0 0
M  V30 12 C 12.9165 0.4305 0.0 0
M  V30 13 C 14.2082 -0.2798 0.0 0
M  V30 14 C 15.4999 0.5166 0.0 0
M  V30 END ATOM
M  V30 BEGIN BOND
M  V30 1 2 1 2
M  V30 2 1 1 3
M  V30 3 1 3 4
M  V30 4 1 4 5
M  V30 5 1 5 6
M  V30 6 1 6 7
M  V30 7 1 7 8
M  V30 8 1 8 9
M  V30 9 1 9 10
M  V30 10 1 10 11
M  V30 11 1 11 12
M  V30 12 1 12 13
M  V30 13 1 13 14
M  V30 END BOND
M  V30 END CTAB
M  END
>  <Molecule Name>
1-tetradecene

>  <Molecule Name 2>
1-tetradecene

>  <Database>
Essential Oil Database

>  <InChI>
InChI=1S/C14H28/c1-3-5-7-9-11-13-14-12-10-8-6-4-2/h3H,1,4-14H2,2H3

>  <InChI-Key>
HFDVRLIODXPAHB-UHFFFAOYSA-N

>  <Smiles>
CCCCCCCCCCCCC=C

>  <Molecular Formula>
C14H28

$$$$
caryophyllene alcohol
Actelion Java MolfileCreator 2.0

  0  0  0  0  0  0              0 V3000
M  V30 BEGIN CTAB
M  V30 COUNTS 16 18 0 0 0
M  V30 BEGIN ATOM
M  V30 1 O 0.0 0.0 0.0 0
M  V30 2 C -0.551 1.3776 0.0 0
M  V30 3 C 0.4538 2.3662 0.0 0
M  V30 4 C -1.1831 3.4521 0.0 0
M  V30 5 C -2.0096 1.4586 0.0 0
M  V30 6 C 0.6482 3.7924 0.0 0
M  V30 7 C 1.7503 2.1717 0.0 0
M  V30 8 C -2.6741 5.008 0.0 0
M  V30 9 C -3.1279 2.4634 0.0 0
M  V30 10 C 1.9448 3.5979 0.0 0
M  V30 11 C -0.1296 5.0566 0.0 0
M  V30 12 C -1.4262 5.559 0.0 0
M  V30 13 C -3.4683 3.8735 0.0 0
M  V30 14 C -3.6628 6.1263 0.0 0
M  V30 15 C 3.2414 3.4035 0.0 0
M  V30 16 C 2.1393 5.0242 0.0 0
M  V30 END ATOM
M  V30 BEGIN BOND
M  V30 1 1 1 2
M  V30 2 1 2 3
M  V30 3 1 2 4
M  V30 4 1 2 5
M  V30 5 1 3 6
M  V30 6 1 3 7
M  V30 7 1 4 8
M  V30 8 1 5 9
M  V30 9 1 6 10
M  V30 10 1 6 11
M  V30 11 1 8 12
M  V30 12 1 8 13
M  V30 13 1 8 14
M  V30 14 1 10 15
M  V30 15 1 10 16
M  V30 16 1 7 10
M  V30 17 1 9 13
M  V30 18 1 11 12
M  V30 END BOND
M  V30 END CTAB
M  END
>  <Molecule Name>
caryophyllene alcohol

>  <Molecule Name 2>
caryophyllene alcohol

>  <Database>
Essential Oil Database

>  <InChI>
InChI=1S/C15H26O/c1-13(2)9-12-11(13)5-8-14(3)6-4-7-15(12,16)10-14/h11-12,16H,4-10H2,1-3H3

>  <InChI-Key>
FUQAYSQLAOJBBC-UHFFFAOYSA-N

>  <Smiles>
CC(C)(C1)C(CCC(C)(CCC2)C3)C1C23O

>  <Molecular Formula>
C15H26O

$$$$
patchouli alcohol
Actelion Java MolfileCreator 2.0

  0  0  0  0  0  0              0 V3000
M  V30 BEGIN CTAB
M  V30 COUNTS 16 18 0 0 0
M  V30 BEGIN ATOM
M  V30 1 O 0.0 0.0 0.0 0
M  V30 2 C -1.0973 -0.965 0.0 0 CFG=1
M  V30 3 C -1.5071 -1.7318 0.0 0 CFG=2
M  V30 4 C -0.1454 -2.6308 0.0 0
M  V30 5 C -2.4722 -0.1322 0.0 0
M  V30 6 C -2.1152 -2.9613 0.0 0 CFG=2
M  V30 7 C -0.4759 -0.2115 0.0 0
M  V30 8 C -2.882 -1.1105 0.0 0
M  V30 9 C 0.8064 -2.4854 0.0 0 CFG=1
M  V30 10 C 0.0 -1.1501 0.0 0
M  V30 11 C 0.8593 -1.5732 0.0 0
M  V30 12 C -3.7942 -0.8593 0.0 0
M  V30 13 C -3.5959 -2.2739 0.0 0 CFG=2
M  V30 14 C -0.6213 -3.5298 0.0 0
M  V30 15 C 0.8593 -0.8196 0.0 0
M  V30 16 C -4.8122 -3.0539 0.0 0
M  V30 END ATOM
M  V30 BEGIN BOND
M  V30 1 1 2 1 CFG=3
M  V30 2 1 3 2 CFG=1
M  V30 3 1 2 4
M  V30 4 1 2 5
M  V30 5 1 3 6
M  V30 6 1 3 7
M  V30 7 1 3 8
M  V30 8 1 4 9
M  V30 9 1 4 10
M  V30 10 1 4 11
M  V30 11 1 5 12
M  V30 12 1 6 13
M  V30 13 1 6 14 CFG=1
M  V30 14 1 7 15
M  V30 15 1 13 16 CFG=1
M  V30 16 1 9 14 CFG=3
M  V30 17 1 9 15
M  V30 18 1 12 13
M  V30 END BOND
M  V30 BEGIN COLLECTION
M  V30 MDLV30/STEABS ATOMS=(5 2 3 6 9 13)
M  V30 END COLLECTION
M  V30 END CTAB
M  END
>  <Molecule Name>
patchouli alcohol

>  <Molecule Name 2>
patchouli alcohol

>  <Database>
Essential Oil Database

>  <InChI>
InChI=1S/C15H26O/c1-10-5-8-15(16)13(2,3)11-6-7-14(15,4)12(10)9-11/h10-12,16H,5-9H2,1-4H3/t10-,11+,12-,14-,15+/m0/s1

>  <InChI-Key>
GGHMUJBZYLPWFD-CUZKYEQNSA-N

>  <Smiles>
C[C@@H](CC1)[C@H](C[C@@H](CC2)C3(C)C)[C@@]2(C)[C@@]13O

>  <Molecular Formula>
C15H26O

$$$$
3-methylbutyl hexanoate
Actelion Java MolfileCreator 2.0

  0  0  0  0  0  0              0 V3000
M  V30 BEGIN CTAB
M  V30 COUNTS 13 12 0 0 0
M  V30 BEGIN ATOM
M  V30 1 O 0.0 0.0 0.0 0
M  V30 2 C -0.0483 1.5461 0.0 0
M  V30 3 O 1.1958 2.3312 0.0 0
M  V30 4 C -1.3891 2.3312 0.0 0
M  V30 5 C 2.4399 1.6065 0.0 0
M  V30 6 C -2.7298 1.6065 0.0 0
M  V30 7 C 3.6841 2.3916 0.0 0
M  V30 8 C -4.0706 2.3916 0.0 0
M  V30 9 C 4.9283 1.6669 0.0 0
M  V30 10 C -5.4114 1.6669 0.0 0
M  V30 11 C 6.1724 2.452 0.0 0
M  V30 12 C 4.8799 0.2174 0.0 0
M  V30 13 C -6.7522 2.452 0.0 0
M  V30 END ATOM
M  V30 BEGIN BOND
M  V30 1 2 1 2
M  V30 2 1 2 3
M  V30 3 1 2 4
M  V30 4 1 3 5
M  V30 5 1 4 6
M  V30 6 1 5 7
M  V30 7 1 6 8
M  V30 8 1 7 9
M  V30 9 1 8 10
M  V30 10 1 9 11
M  V30 11 1 9 12
M  V30 12 1 10 13
M  V30 END BOND
M  V30 END CTAB
M  END
>  <Molecule Name>
3-methylbutyl hexanoate

>  <Molecule Name 2>
3-methylbutyl hexanoate

>  <Database>
Essential Oil Database

>  <InChI>
InChI=1S/C11H22O2/c1-4-5-6-7-11(12)13-9-8-10(2)3/h10H,4-9H2,1-3H3

>  <InChI-Key>
XVSZRAWFCDHCBP-UHFFFAOYSA-N

>  <Smiles>
CCCCCC(OCCC(C)C)=O

>  <Molecular Formula>
C11H22O2

$$$$
butyl hexanoate
Actelion Java MolfileCreator 2.0

  0  0  0  0  0  0              0 V3000
M  V30 BEGIN CTAB
M  V30 COUNTS 12 11 0 0 0
M  V30 BEGIN ATOM
M  V30 1 O 0.0 0.0 0.0 0
M  V30 2 C -0.048 1.5391 0.0 0
M  V30 3 O 1.1904 2.3327 0.0 0
M  V30 4 C -1.3828 2.3327 0.0 0
M  V30 5 C 2.4289 1.6112 0.0 0
M  V30 6 C -2.7175 1.6112 0.0 0
M  V30 7 C 3.6674 2.4049 0.0 0
M  V30 8 C -4.0522 2.4049 0.0 0
M  V30 9 C 4.906 1.6834 0.0 0
M  V30 10 C -5.387 1.6834 0.0 0
M  V30 11 C 6.1445 2.465 0.0 0
M  V30 12 C -6.7217 2.465 0.0 0
M  V30 END ATOM
M  V30 BEGIN BOND
M  V30 1 2 1 2
M  V30 2 1 2 3
M  V30 3 1 2 4
M  V30 4 1 3 5
M  V30 5 1 4 6
M  V30 6 1 5 7
M  V30 7 1 6 8
M  V30 8 1 7 9
M  V30 9 1 8 10
M  V30 10 1 9 11
M  V30 11 1 10 12
M  V30 END BOND
M  V30 END CTAB
M  END
>  <Molecule Name>
butyl hexanoate

>  <Molecule Name 2>
butyl hexanoate

>  <Database>
Essential Oil Database

>  <InChI>
InChI=1S/C10H20O2/c1-3-5-7-8-10(11)12-9-6-4-2/h3-9H2,1-2H3

>  <InChI-Key>
RPRPDTXKGSIXMD-UHFFFAOYSA-N

>  <Smiles>
CCCCCC(OCCCC)=O

>  <Molecular Formula>
C10H20O2

$$$$
geranyl proponate
Actelion Java MolfileCreator 2.0

  0  0  0  0  0  0              0 V3000
M  V30 BEGIN CTAB
M  V30 COUNTS 14 13 0 0 0
M  V30 BEGIN ATOM
M  V30 1 O 0.0 0.0 0.0 0
M  V30 2 C 1.2877 0.827 0.0 0
M  V30 3 C 2.5755 0.1299 0.0 0
M  V30 4 C 3.8633 0.9569 0.0 0
M  V30 5 C 5.151 0.2599 0.0 0
M  V30 6 C 6.4388 1.0869 0.0 0
M  V30 7 C 7.7266 0.378 0.0 0
M  V30 8 C 9.0143 1.205 0.0 0
M  V30 9 C 7.6793 -1.1105 0.0 0
M  V30 10 C 10.3021 0.4962 0.0 0
M  V30 11 C 11.5899 1.3232 0.0 0
M  V30 12 C 12.8776 0.6143 0.0 0
M  V30 13 C 14.1654 1.4413 0.0 0
M  V30 14 C 12.8304 -0.8742 0.0 0
M  V30 END ATOM
M  V30 BEGIN BOND
M  V30 1 2 1 2
M  V30 2 1 2 3
M  V30 3 1 3 4
M  V30 4 1 4 5
M  V30 5 1 5 6
M  V30 6 2 6 7
M  V30 7 1 7 8
M  V30 8 1 7 9
M  V30 9 1 8 10
M  V30 10 1 10 11
M  V30 11 2 11 12
M  V30 12 1 12 13
M  V30 13 1 12 14
M  V30 END BOND
M  V30 END CTAB
M  END
>  <Molecule Name>
geranyl proponate

>  <Molecule Name 2>
geranyl proponate

>  <Database>
Essential Oil Database

>  <InChI>
InChI=1S/C13H22O/c1-12(2)8-7-10-13(3)9-5-4-6-11-14/h8-9,11H,4-7,10H2,1-3H3/b13-9+

>  <InChI-Key>
YYMHITROEGQPDH-UKTHLTGXSA-N

>  <Smiles>
CC(C)=CCC/C(\C)=C/CCCC=O

>  <Molecular Formula>
C13H22O

$$$$
isopropyl heptanoate
Actelion Java MolfileCreator 2.0

  0  0  0  0  0  0              0 V3000
M  V30 BEGIN CTAB
M  V30 COUNTS 12 11 0 0 0
M  V30 BEGIN ATOM
M  V30 1 O 0.0 0.0 0.0 0
M  V30 2 C -0.0479 1.5356 0.0 0
M  V30 3 O 1.1876 2.3154 0.0 0
M  V30 4 C -1.3796 2.3154 0.0 0
M  V30 5 C 2.4233 1.5955 0.0 0
M  V30 6 C -2.7113 1.5955 0.0 0
M  V30 7 C 3.659 2.3753 0.0 0
M  V30 8 C 2.3753 0.1559 0.0 0
M  V30 9 C -4.0429 2.3753 0.0 0
M  V30 10 C -5.3746 1.6555 0.0 0
M  V30 11 C -6.7062 2.4353 0.0 0
M  V30 12 C -8.0379 1.7155 0.0 0
M  V30 END ATOM
M  V30 BEGIN BOND
M  V30 1 2 1 2
M  V30 2 1 2 3
M  V30 3 1 2 4
M  V30 4 1 3 5
M  V30 5 1 4 6
M  V30 6 1 5 7
M  V30 7 1 5 8
M  V30 8 1 6 9
M  V30 9 1 9 10
M  V30 10 1 10 11
M  V30 11 1 11 12
M  V30 END BOND
M  V30 END CTAB
M  END
>  <Molecule Name>
isopropyl heptanoate

>  <Molecule Name 2>
isopropyl heptanoate

>  <Database>
Essential Oil Database

>  <InChI>
InChI=1S/C10H20O2/c1-4-5-6-7-8-10(11)12-9(2)3/h9H,4-8H2,1-3H3

>  <InChI-Key>
RMQUEHVMCJEEOS-UHFFFAOYSA-N

>  <Smiles>
CCCCCCC(OC(C)C)=O

>  <Molecular Formula>
C10H20O2

$$$$
isopropyl octanoate
Actelion Java MolfileCreator 2.0

  0  0  0  0  0  0              0 V3000
M  V30 BEGIN CTAB
M  V30 COUNTS 13 12 0 0 0
M  V30 BEGIN ATOM
M  V30 1 O 0.0 0.0 0.0 0
M  V30 2 C -0.0478 1.5298 0.0 0
M  V30 3 O 1.1832 2.3067 0.0 0
M  V30 4 C -1.3744 2.3067 0.0 0
M  V30 5 C 2.4142 1.5895 0.0 0
M  V30 6 C -2.7011 1.5895 0.0 0
M  V30 7 C 3.6453 2.3784 0.0 0
M  V30 8 C 2.3664 0.1553 0.0 0
M  V30 9 C -4.0277 2.3784 0.0 0
M  V30 10 C -5.3544 1.6613 0.0 0
M  V30 11 C -6.681 2.4501 0.0 0
M  V30 12 C -8.0077 1.733 0.0 0
M  V30 13 C -9.3344 2.5218 0.0 0
M  V30 END ATOM
M  V30 BEGIN BOND
M  V30 1 2 1 2
M  V30 2 1 2 3
M  V30 3 1 2 4
M  V30 4 1 3 5
M  V30 5 1 4 6
M  V30 6 1 5 7
M  V30 7 1 5 8
M  V30 8 1 6 9
M  V30 9 1 9 10
M  V30 10 1 10 11
M  V30 11 1 11 12
M  V30 12 1 12 13
M  V30 END BOND
M  V30 END CTAB
M  END
>  <Molecule Name>
isopropyl octanoate

>  <Molecule Name 2>
isopropyl octanoate

>  <Database>
Essential Oil Database

>  <InChI>
InChI=1S/C11H22O2/c1-4-5-6-7-8-9-11(12)13-10(2)3/h10H,4-9H2,1-3H3

>  <InChI-Key>
WCGIIHOFOFCKSM-UHFFFAOYSA-N

>  <Smiles>
CCCCCCCC(OC(C)C)=O

>  <Molecular Formula>
C11H22O2

$$$$
methyl hexanoate
Actelion Java MolfileCreator 2.0

  0  0  0  0  0  0              0 V3000
M  V30 BEGIN CTAB
M  V30 COUNTS 9 8 0 0 0
M  V30 BEGIN ATOM
M  V30 1 O 0.0 0.0 0.0 0
M  V30 2 C -0.0456 -1.4391 0.0 0
M  V30 3 O 1.1993 -2.1245 0.0 0
M  V30 4 C -1.382 -2.1245 0.0 0
M  V30 5 C 2.4443 -1.3135 0.0 0
M  V30 6 C -2.7184 -1.3135 0.0 0
M  V30 7 C -4.0548 -2.0217 0.0 0
M  V30 8 C -5.3912 -1.2107 0.0 0
M  V30 9 C -6.7275 -1.9189 0.0 0
M  V30 END ATOM
M  V30 BEGIN BOND
M  V30 1 2 1 2
M  V30 2 1 2 3
M  V30 3 1 2 4
M  V30 4 1 3 5
M  V30 5 1 4 6
M  V30 6 1 6 7
M  V30 7 1 7 8
M  V30 8 1 8 9
M  V30 END BOND
M  V30 END CTAB
M  END
>  <Molecule Name>
methyl hexanoate

>  <Molecule Name 2>
methyl hexanoate

>  <Database>
Essential Oil Database

>  <InChI>
InChI=1S/C7H14O2/c1-3-4-5-6-7(8)9-2/h3-6H2,1-2H3

>  <InChI-Key>
NUKZAGXMHTUAFE-UHFFFAOYSA-N

>  <Smiles>
CCCCCC(OC)=O

>  <Molecular Formula>
C7H14O2

$$$$
propyl hexanoate
Actelion Java MolfileCreator 2.0

  0  0  0  0  0  0              0 V3000
M  V30 BEGIN CTAB
M  V30 COUNTS 11 10 0 0 0
M  V30 BEGIN ATOM
M  V30 1 O 0.0 0.0 0.0 0
M  V30 2 C -0.046 -1.4502 0.0 0
M  V30 3 O 1.2085 -2.1407 0.0 0
M  V30 4 C -1.3926 -2.1407 0.0 0
M  V30 5 C 2.463 -1.3236 0.0 0
M  V30 6 C -2.7392 -1.3236 0.0 0
M  V30 7 C 3.7176 -2.0141 0.0 0
M  V30 8 C -4.0859 -2.0141 0.0 0
M  V30 9 C 4.9721 -1.197 0.0 0
M  V30 10 C -5.4325 -1.197 0.0 0
M  V30 11 C -6.7791 -1.8875 0.0 0
M  V30 END ATOM
M  V30 BEGIN BOND
M  V30 1 2 1 2
M  V30 2 1 2 3
M  V30 3 1 2 4
M  V30 4 1 3 5
M  V30 5 1 4 6
M  V30 6 1 5 7
M  V30 7 1 6 8
M  V30 8 1 7 9
M  V30 9 1 8 10
M  V30 10 1 10 11
M  V30 END BOND
M  V30 END CTAB
M  END
>  <Molecule Name>
propyl hexanoate

>  <Molecule Name 2>
propyl hexanoate

>  <Database>
Essential Oil Database

>  <InChI>
InChI=1S/C9H18O2/c1-3-5-6-7-9(10)11-8-4-2/h3-8H2,1-2H3

>  <InChI-Key>
HTUIWRWYYVBCFT-UHFFFAOYSA-N

>  <Smiles>
CCCCCC(OCCC)=O

>  <Molecular Formula>
C9H18O2

$$$$
2-dodecenal
Actelion Java MolfileCreator 2.0

  0  0  0  0  0  0              0 V3000
M  V30 BEGIN CTAB
M  V30 COUNTS 13 12 0 0 0
M  V30 BEGIN ATOM
M  V30 1 O 0.0 0.0 0.0 0
M  V30 2 C -0.0494 1.5825 0.0 0
M  V30 3 C 1.2239 2.3861 0.0 0
M  V30 4 C 2.4974 1.6443 0.0 0
M  V30 5 C 3.7708 2.4603 0.0 0
M  V30 6 C 5.0442 1.7185 0.0 0
M  V30 7 C 6.3176 2.5221 0.0 0
M  V30 8 C 7.5911 1.7803 0.0 0
M  V30 9 C 8.8645 2.5839 0.0 0
M  V30 10 C 10.1379 1.8421 0.0 0
M  V30 11 C 11.4113 2.6457 0.0 0
M  V30 12 C 12.6848 1.9039 0.0 0
M  V30 13 C 13.9582 2.7199 0.0 0
M  V30 END ATOM
M  V30 BEGIN BOND
M  V30 1 2 1 2
M  V30 2 1 2 3
M  V30 3 2 3 4 CFG=2
M  V30 4 1 4 5
M  V30 5 1 5 6
M  V30 6 1 6 7
M  V30 7 1 7 8
M  V30 8 1 8 9
M  V30 9 1 9 10
M  V30 10 1 10 11
M  V30 11 1 11 12
M  V30 12 1 12 13
M  V30 END BOND
M  V30 END CTAB
M  END
>  <Molecule Name>
2-dodecenal

>  <Molecule Name 2>
2-dodecenal

>  <Database>
Essential Oil Database

>  <InChI>
InChI=1S/C12H22O/c1-2-3-4-5-6-7-8-9-10-11-12-13/h10-12H,2-9H2,1H3

>  <InChI-Key>
SSNZFFBDIMUILS-UHFFFAOYSA-N

>  <Smiles>
CCCCCCCCCC=CC=O

>  <Molecular Formula>
C12H22O

$$$$
decenal
Actelion Java MolfileCreator 2.0

  0  0  0  0  0  0              0 V3000
M  V30 BEGIN CTAB
M  V30 COUNTS 11 10 0 0 0
M  V30 BEGIN ATOM
M  V30 1 O 0.0 0.0 0.0 0
M  V30 2 C -0.0494 1.5817 0.0 0
M  V30 3 C 1.2233 2.3849 0.0 0
M  V30 4 C 2.4962 1.6435 0.0 0
M  V30 5 C 3.769 2.4467 0.0 0
M  V30 6 C 5.0418 1.7053 0.0 0
M  V30 7 C 6.3146 2.5085 0.0 0
M  V30 8 C 7.5874 1.7671 0.0 0
M  V30 9 C 8.8602 2.5703 0.0 0
M  V30 10 C 10.1331 1.8289 0.0 0
M  V30 11 C 11.4059 2.6321 0.0 0
M  V30 END ATOM
M  V30 BEGIN BOND
M  V30 1 2 1 2
M  V30 2 1 2 3
M  V30 3 2 3 4 CFG=2
M  V30 4 1 4 5
M  V30 5 1 5 6
M  V30 6 1 6 7
M  V30 7 1 7 8
M  V30 8 1 8 9
M  V30 9 1 9 10
M  V30 10 1 10 11
M  V30 END BOND
M  V30 END CTAB
M  END
>  <Molecule Name>
decenal

>  <Molecule Name 2>
decenal

>  <Database>
Essential Oil Database

>  <InChI>
InChI=1S/C10H18O/c1-2-3-4-5-6-7-8-9-10-11/h8-10H,2-7H2,1H3

>  <InChI-Key>
MMFCJPPRCYDLLZ-UHFFFAOYSA-N

>  <Smiles>
CCCCCCCC=CC=O

>  <Molecular Formula>
C10H18O

$$$$
octadecanoic acid
Actelion Java MolfileCreator 2.0

  0  0  0  0  0  0              0 V3000
M  V30 BEGIN CTAB
M  V30 COUNTS 20 19 0 0 0
M  V30 BEGIN ATOM
M  V30 1 O 0.0 0.0 0.0 0
M  V30 2 C -0.047 -1.4821 0.0 0
M  V30 3 O -1.4233 -2.1996 0.0 0
M  V30 4 C 1.235 -2.1996 0.0 0
M  V30 5 C 2.5172 -1.3644 0.0 0
M  V30 6 C 3.7993 -2.0702 0.0 0
M  V30 7 C 5.0815 -1.235 0.0 0
M  V30 8 C 6.3636 -1.9408 0.0 0
M  V30 9 C 7.6458 -1.1057 0.0 0
M  V30 10 C 8.9279 -1.8114 0.0 0
M  V30 11 C 10.2101 -0.9763 0.0 0
M  V30 12 C 11.4922 -1.6938 0.0 0
M  V30 13 C 12.7744 -0.8586 0.0 0
M  V30 14 C 14.0565 -1.5879 0.0 0
M  V30 15 C 15.3387 -0.7528 0.0 0
M  V30 16 C 16.6208 -1.4938 0.0 0
M  V30 17 C 17.903 -0.6587 0.0 0
M  V30 18 C 19.1851 -1.388 0.0 0
M  V30 19 C 20.4672 -0.5528 0.0 0
M  V30 20 C 21.7494 -1.2586 0.0 0
M  V30 END ATOM
M  V30 BEGIN BOND
M  V30 1 2 1 2
M  V30 2 1 2 3
M  V30 3 1 2 4
M  V30 4 1 4 5
M  V30 5 1 5 6
M  V30 6 1 6 7
M  V30 7 1 7 8
M  V30 8 1 8 9
M  V30 9 1 9 10
M  V30 10 1 10 11
M  V30 11 1 11 12
M  V30 12 1 12 13
M  V30 13 1 13 14
M  V30 14 1 14 15
M  V30 15 1 15 16
M  V30 16 1 16 17
M  V30 17 1 17 18
M  V30 18 1 18 19
M  V30 19 1 19 20
M  V30 END BOND
M  V30 END CTAB
M  END
>  <Molecule Name>
octadecanoic acid

>  <Molecule Name 2>
octadecanoic acid

>  <Database>
Essential Oil Database

>  <InChI>
InChI=1S/C18H36O2/c1-2-3-4-5-6-7-8-9-10-11-12-13-14-15-16-17-18(19)20/h2-17H2,1H3,(H,19,20)

>  <InChI-Key>
QIQXTHQIDYTFRH-UHFFFAOYSA-N

>  <Smiles>
CCCCCCCCCCCCCCCCCC(O)=O

>  <Molecular Formula>
C18H36O2

$$$$
pentadecanoic acid
Actelion Java MolfileCreator 2.0

  0  0  0  0  0  0              0 V3000
M  V30 BEGIN CTAB
M  V30 COUNTS 17 16 0 0 0
M  V30 BEGIN ATOM
M  V30 1 O 0.0 0.0 0.0 0
M  V30 2 C -0.0472 -1.4885 0.0 0
M  V30 3 O -1.4294 -2.1855 0.0 0
M  V30 4 C 1.2404 -2.1855 0.0 0
M  V30 5 C 2.5281 -1.3586 0.0 0
M  V30 6 C 3.8159 -2.0556 0.0 0
M  V30 7 C 5.1036 -1.2286 0.0 0
M  V30 8 C 6.3913 -1.9256 0.0 0
M  V30 9 C 7.679 -1.0986 0.0 0
M  V30 10 C 8.9668 -1.7957 0.0 0
M  V30 11 C 10.2545 -0.9687 0.0 0
M  V30 12 C 11.5422 -1.6657 0.0 0
M  V30 13 C 12.8299 -0.8387 0.0 0
M  V30 14 C 14.1176 -1.5358 0.0 0
M  V30 15 C 15.4054 -0.7088 0.0 0
M  V30 16 C 16.6931 -1.4058 0.0 0
M  V30 17 C 17.9808 -0.5788 0.0 0
M  V30 END ATOM
M  V30 BEGIN BOND
M  V30 1 2 1 2
M  V30 2 1 2 3
M  V30 3 1 2 4
M  V30 4 1 4 5
M  V30 5 1 5 6
M  V30 6 1 6 7
M  V30 7 1 7 8
M  V30 8 1 8 9
M  V30 9 1 9 10
M  V30 10 1 10 11
M  V30 11 1 11 12
M  V30 12 1 12 13
M  V30 13 1 13 14
M  V30 14 1 14 15
M  V30 15 1 15 16
M  V30 16 1 16 17
M  V30 END BOND
M  V30 END CTAB
M  END
>  <Molecule Name>
pentadecanoic acid

>  <Molecule Name 2>
pentadecanoic acid

>  <Database>
Essential Oil Database

>  <InChI>
InChI=1S/C15H30O2/c1-2-3-4-5-6-7-8-9-10-11-12-13-14-15(16)17/h2-14H2,1H3,(H,16,17)

>  <InChI-Key>
WQEPLUUGTLDZJY-UHFFFAOYSA-N

>  <Smiles>
CCCCCCCCCCCCCCC(O)=O

>  <Molecular Formula>
C15H30O2

$$$$
decane
Actelion Java MolfileCreator 2.0

  0  0  0  0  0  0              0 V3000
M  V30 BEGIN CTAB
M  V30 COUNTS 10 9 0 0 0
M  V30 BEGIN ATOM
M  V30 1 C 0.0 0.0 0.0 0
M  V30 2 C 1.265 0.7801 0.0 0
M  V30 3 C -1.3493 0.7801 0.0 0
M  V30 4 C 2.53 0.0843 0.0 0
M  V30 5 C -2.6987 0.0843 0.0 0
M  V30 6 C 3.7951 0.8644 0.0 0
M  V30 7 C -4.0481 0.8644 0.0 0
M  V30 8 C 5.0601 0.1686 0.0 0
M  V30 9 C -5.3975 0.1686 0.0 0
M  V30 10 C 6.3252 0.9487 0.0 0
M  V30 END ATOM
M  V30 BEGIN BOND
M  V30 1 1 1 2
M  V30 2 1 1 3
M  V30 3 1 2 4
M  V30 4 1 3 5
M  V30 5 1 4 6
M  V30 6 1 5 7
M  V30 7 1 6 8
M  V30 8 1 7 9
M  V30 9 1 8 10
M  V30 END BOND
M  V30 END CTAB
M  END
>  <Molecule Name>
decane

>  <Molecule Name 2>
decane

>  <Database>
Essential Oil Database

>  <InChI>
InChI=1S/C10H22/c1-3-5-7-9-10-8-6-4-2/h3-10H2,1-2H3

>  <InChI-Key>
DIOQZVSQGTUSAI-UHFFFAOYSA-N

>  <Smiles>
CCCCCCCCCC

>  <Molecular Formula>
C10H22

$$$$
triacontane
Actelion Java MolfileCreator 2.0

  0  0  0  0  0  0              0 V3000
M  V30 BEGIN CTAB
M  V30 COUNTS 30 29 0 0 0
M  V30 BEGIN ATOM
M  V30 1 C 0.0 0.0 0.0 0
M  V30 2 C 1.264 0.7794 0.0 0
M  V30 3 C -1.3483 0.7794 0.0 0
M  V30 4 C 2.5281 0.0842 0.0 0
M  V30 5 C -2.6966 0.0842 0.0 0
M  V30 6 C 3.7921 0.8637 0.0 0
M  V30 7 C -4.0449 0.8637 0.0 0
M  V30 8 C 5.0562 0.1685 0.0 0
M  V30 9 C -5.3932 0.1685 0.0 0
M  V30 10 C 6.3202 0.948 0.0 0
M  V30 11 C -6.7416 0.948 0.0 0
M  V30 12 C 7.5843 0.2528 0.0 0
M  V30 13 C -8.0899 0.2528 0.0 0
M  V30 14 C 8.8483 1.0323 0.0 0
M  V30 15 C -9.4382 1.0323 0.0 0
M  V30 16 C 10.1124 0.337 0.0 0
M  V30 17 C -10.7865 0.337 0.0 0
M  V30 18 C 11.3764 1.1165 0.0 0
M  V30 19 C -12.1348 1.1165 0.0 0
M  V30 20 C 12.6405 0.4213 0.0 0
M  V30 21 C -13.4832 0.4213 0.0 0
M  V30 22 C 13.9045 1.2008 0.0 0
M  V30 23 C -14.8315 1.2008 0.0 0
M  V30 24 C 15.1686 0.5056 0.0 0
M  V30 25 C -16.1798 0.5056 0.0 0
M  V30 26 C 16.4326 1.2851 0.0 0
M  V30 27 C -17.5281 1.2851 0.0 0
M  V30 28 C 17.6967 0.5898 0.0 0
M  V30 29 C -18.8764 0.5898 0.0 0
M  V30 30 C 18.9607 1.3693 0.0 0
M  V30 END ATOM
M  V30 BEGIN BOND
M  V30 1 1 1 2
M  V30 2 1 1 3
M  V30 3 1 2 4
M  V30 4 1 3 5
M  V30 5 1 4 6
M  V30 6 1 5 7
M  V30 7 1 6 8
M  V30 8 1 7 9
M  V30 9 1 8 10
M  V30 10 1 9 11
M  V30 11 1 10 12
M  V30 12 1 11 13
M  V30 13 1 12 14
M  V30 14 1 13 15
M  V30 15 1 14 16
M  V30 16 1 15 17
M  V30 17 1 16 18
M  V30 18 1 17 19
M  V30 19 1 18 20
M  V30 20 1 19 21
M  V30 21 1 20 22
M  V30 22 1 21 23
M  V30 23 1 22 24
M  V30 24 1 23 25
M  V30 25 1 24 26
M  V30 26 1 25 27
M  V30 27 1 26 28
M  V30 28 1 27 29
M  V30 29 1 28 30
M  V30 END BOND
M  V30 END CTAB
M  END
>  <Molecule Name>
triacontane

>  <Molecule Name 2>
triacontane

>  <Database>
Essential Oil Database

>  <InChI>
InChI=1S/C30H62/c1-3-5-7-9-11-13-15-17-19-21-23-25-27-29-30-28-26-24-22-20-18-16-14-12-10-8-6-4-2/h3-30H2,1-2H3

>  <InChI-Key>
JXTPJDDICSTXJX-UHFFFAOYSA-N

>  <Smiles>
CCCCCCCCCCCCCCCCCCCCCCCCCCCCCC

>  <Molecular Formula>
C30H62

$$$$
dodecene
Actelion Java MolfileCreator 2.0

  0  0  0  0  0  0              0 V3000
M  V30 BEGIN CTAB
M  V30 COUNTS 12 11 0 0 0
M  V30 BEGIN ATOM
M  V30 1 C 0.0 0.0 0.0 0
M  V30 2 C -1.377 -0.71 0.0 0
M  V30 3 C 1.291 -0.71 0.0 0
M  V30 4 C 2.582 0.086 0.0 0
M  V30 5 C 3.873 -0.6239 0.0 0
M  V30 6 C 5.164 0.1721 0.0 0
M  V30 7 C 6.455 -0.5379 0.0 0
M  V30 8 C 7.746 0.2582 0.0 0
M  V30 9 C 9.037 -0.4518 0.0 0
M  V30 10 C 10.328 0.3442 0.0 0
M  V30 11 C 11.619 -0.3657 0.0 0
M  V30 12 C 12.91 0.4303 0.0 0
M  V30 END ATOM
M  V30 BEGIN BOND
M  V30 1 2 1 2
M  V30 2 1 1 3
M  V30 3 1 3 4
M  V30 4 1 4 5
M  V30 5 1 5 6
M  V30 6 1 6 7
M  V30 7 1 7 8
M  V30 8 1 8 9
M  V30 9 1 9 10
M  V30 10 1 10 11
M  V30 11 1 11 12
M  V30 END BOND
M  V30 END CTAB
M  END
>  <Molecule Name>
dodecene

>  <Molecule Name 2>
dodecene

>  <Database>
Essential Oil Database

>  <InChI>
InChI=1S/C12H24/c1-3-5-7-9-11-12-10-8-6-4-2/h3H,1,4-12H2,2H3

>  <InChI-Key>
CRSBERNSMYQZNG-UHFFFAOYSA-N

>  <Smiles>
CCCCCCCCCCC=C

>  <Molecular Formula>
C12H24

$$$$
occidentalol
Actelion Java MolfileCreator 2.0

  0  0  0  0  0  0              0 V3000
M  V30 BEGIN CTAB
M  V30 COUNTS 16 17 0 0 0
M  V30 BEGIN ATOM
M  V30 1 O 0.0 0.0 0.0 0
M  V30 2 C -0.7622 -1.2267 0.0 0
M  V30 3 C -2.0843 -0.4526 0.0 0 CFG=1
M  V30 4 C 0.4645 -1.9414 0.0 0
M  V30 5 C -1.5245 -2.4535 0.0 0
M  V30 6 C -3.4064 -1.1672 0.0 0
M  V30 7 C -2.132 1.0719 0.0 0
M  V30 8 C -4.7285 -0.393 0.0 0 CFG=1
M  V30 9 C -3.454 1.8342 0.0 0
M  V30 10 C -6.0506 -1.1076 0.0 0
M  V30 11 C -4.7761 1.1315 0.0 0 CFG=2
M  V30 12 C -7.3726 -0.3334 0.0 0
M  V30 13 C -6.0982 -2.5369 0.0 0
M  V30 14 C -6.0982 1.9057 0.0 0
M  V30 15 C -4.8238 2.656 0.0 0
M  V30 16 C -7.4203 1.191 0.0 0
M  V30 END ATOM
M  V30 BEGIN BOND
M  V30 1 1 1 2
M  V30 2 1 3 2 CFG=1
M  V30 3 1 2 4
M  V30 4 1 2 5
M  V30 5 1 3 6
M  V30 6 1 3 7
M  V30 7 1 8 6 CFG=1
M  V30 8 1 7 9
M  V30 9 1 8 10
M  V30 10 1 8 11
M  V30 11 2 10 12
M  V30 12 1 10 13
M  V30 13 1 11 14
M  V30 14 1 11 15 CFG=3
M  V30 15 1 12 16
M  V30 16 1 9 11
M  V30 17 2 14 16
M  V30 END BOND
M  V30 BEGIN COLLECTION
M  V30 MDLV30/STEABS ATOMS=(3 3 8 11)
M  V30 END COLLECTION
M  V30 END CTAB
M  END
>  <Molecule Name>
occidentalol

>  <Molecule Name 2>
occidentalol

>  <Database>
Essential Oil Database

>  <InChI>
InChI=1S/C15H24O/c1-11-6-5-8-15(4)9-7-12(10-13(11)15)14(2,3)16/h5-6,8,12-13,16H,7,9-10H2,1-4H3/t12-,13+,15+/m1/s1

>  <InChI-Key>
AMZWKSYAMHGGSR-IPYPFGDCSA-N

>  <Smiles>
CC(C)([C@H]1C[C@H]2C(C)=CC=C[C@@]2(C)CC1)O

>  <Molecular Formula>
C15H24O

$$$$
heptyl isobutyrate
Actelion Java MolfileCreator 2.0

  0  0  0  0  0  0              0 V3000
M  V30 BEGIN CTAB
M  V30 COUNTS 13 12 0 0 0
M  V30 BEGIN ATOM
M  V30 1 O 0.0 0.0 0.0 0
M  V30 2 C -0.0467 -1.4714 0.0 0
M  V30 3 O 1.2261 -2.2071 0.0 0
M  V30 4 C -1.413 -2.2071 0.0 0
M  V30 5 C 2.499 -1.3779 0.0 0
M  V30 6 C -2.7793 -1.3779 0.0 0
M  V30 7 C -1.4597 -3.6785 0.0 0
M  V30 8 C 3.7719 -2.0786 0.0 0
M  V30 9 C 5.0448 -1.2495 0.0 0
M  V30 10 C 6.3177 -1.9502 0.0 0
M  V30 11 C 7.5906 -1.121 0.0 0
M  V30 12 C 8.8635 -1.8217 0.0 0
M  V30 13 C 10.1364 -0.9926 0.0 0
M  V30 END ATOM
M  V30 BEGIN BOND
M  V30 1 2 1 2
M  V30 2 1 2 3
M  V30 3 1 2 4
M  V30 4 1 3 5
M  V30 5 1 4 6
M  V30 6 1 4 7
M  V30 7 1 5 8
M  V30 8 1 8 9
M  V30 9 1 9 10
M  V30 10 1 10 11
M  V30 11 1 11 12
M  V30 12 1 12 13
M  V30 END BOND
M  V30 END CTAB
M  END
>  <Molecule Name>
heptyl isobutyrate

>  <Molecule Name 2>
heptyl isobutyrate

>  <Database>
Essential Oil Database

>  <InChI>
InChI=1S/C11H22O2/c1-4-5-6-7-8-9-13-11(12)10(2)3/h10H,4-9H2,1-3H3

>  <InChI-Key>
RFDUMBPGZUIKOG-UHFFFAOYSA-N

>  <Smiles>
CCCCCCCOC(C(C)C)=O

>  <Molecular Formula>
C11H22O2

$$$$
dimethyl-ionone
Actelion Java MolfileCreator 2.0

  0  0  0  0  0  0              0 V3000
M  V30 BEGIN CTAB
M  V30 COUNTS 16 16 0 0 0
M  V30 BEGIN ATOM
M  V30 1 O 0.0 0.0 0.0 0
M  V30 2 C -0.0463 -1.46 0.0 0
M  V30 3 C -1.402 -2.1436 0.0 0
M  V30 4 C 1.2166 -2.1436 0.0 0
M  V30 5 C -1.4484 -3.6037 0.0 0
M  V30 6 C 2.4797 -1.3325 0.0 0
M  V30 7 C 1.1703 -3.6037 0.0 0
M  V30 8 C -2.8041 -4.2873 0.0 0 CFG=1
M  V30 9 C -2.8505 -5.7473 0.0 0
M  V30 10 C -4.1599 -3.4762 0.0 0
M  V30 11 C -4.2062 -6.431 0.0 0
M  V30 12 C -1.5874 -6.431 0.0 0
M  V30 13 C -5.5156 -4.1599 0.0 0
M  V30 14 C -4.9014 -2.0973 0.0 0
M  V30 15 C -3.511 -2.0973 0.0 0
M  V30 16 C -5.5619 -5.6199 0.0 0
M  V30 END ATOM
M  V30 BEGIN BOND
M  V30 1 2 1 2
M  V30 2 1 2 3
M  V30 3 1 2 4
M  V30 4 2 3 5
M  V30 5 1 4 6
M  V30 6 1 4 7
M  V30 7 1 8 5 CFG=1
M  V30 8 1 8 9
M  V30 9 1 8 10
M  V30 10 2 9 11
M  V30 11 1 9 12
M  V30 12 1 10 13
M  V30 13 1 10 14
M  V30 14 1 10 15
M  V30 15 1 11 16
M  V30 16 1 13 16
M  V30 END BOND
M  V30 BEGIN COLLECTION
M  V30 MDLV30/STERAC1 ATOMS=(1 8)
M  V30 END COLLECTION
M  V30 END CTAB
M  END
>  <Molecule Name>
dimethyl-ionone

>  <Molecule Name 2>
dimethyl-ionone

>  <Database>
Essential Oil Database

>  <InChI>
InChI=1S/C15H24O/c1-11(2)14(16)9-8-13-12(3)7-6-10-15(13,4)5/h7-9,11,13H,6,10H2,1-5H3/b9-8+/t13-/m0/s1

>  <InChI-Key>
BFKQQVWLWQKHFZ-XEHSLEBBSA-N

>  <Smiles>
CC(C)C(/C=C/C1C(C)=CCCC1(C)C)=O

>  <Molecular Formula>
C15H24O

$$$$
(e)-2-hexenyl benzoate
Actelion Java MolfileCreator 2.0

  0  0  0  0  0  0              0 V3000
M  V30 BEGIN CTAB
M  V30 COUNTS 15 15 0 0 0
M  V30 BEGIN ATOM
M  V30 1 O 0.0 0.0 0.0 0
M  V30 2 C -1.3327 -0.7083 0.0 0
M  V30 3 O -2.6654 0.06 0.0 0
M  V30 4 C -1.3807 -2.1492 0.0 0
M  V30 5 C -2.7135 1.5968 0.0 0
M  V30 6 C -0.144 -2.8576 0.0 0
M  V30 7 C -2.7135 -2.8576 0.0 0
M  V30 8 C -4.0462 2.3893 0.0 0
M  V30 9 C -0.1921 -4.2984 0.0 0
M  V30 10 C -2.7615 -4.2984 0.0 0
M  V30 11 C -4.0942 3.9262 0.0 0
M  V30 12 C -1.5248 -5.0068 0.0 0
M  V30 13 C -5.427 4.7066 0.0 0
M  V30 14 C -5.475 6.2435 0.0 0
M  V30 15 C -6.8078 7.0359 0.0 0
M  V30 END ATOM
M  V30 BEGIN BOND
M  V30 1 2 1 2
M  V30 2 1 2 3
M  V30 3 1 2 4
M  V30 4 1 3 5
M  V30 5 2 4 6
M  V30 6 1 4 7
M  V30 7 1 5 8
M  V30 8 1 6 9
M  V30 9 2 7 10
M  V30 10 2 8 11
M  V30 11 2 9 12
M  V30 12 1 11 13
M  V30 13 1 13 14
M  V30 14 1 14 15
M  V30 15 1 10 12
M  V30 END BOND
M  V30 END CTAB
M  END
>  <Molecule Name>
(e)-2-hexenyl benzoate

>  <Molecule Name 2>
(e)-2-hexenyl benzoate

>  <Database>
Essential Oil Database

>  <InChI>
InChI=1S/C13H16O2/c1-2-3-4-8-11-15-13(14)12-9-6-5-7-10-12/h4-10H,2-3,11H2,1H3/b8-4+

>  <InChI-Key>
IRWNFSMZBFIURE-XBXARRHUSA-N

>  <Smiles>
CCC/C=C/COC(c1ccccc1)=O

>  <Molecular Formula>
C13H16O2

$$$$
heptanol
Actelion Java MolfileCreator 2.0

  0  0  0  0  0  0              0 V3000
M  V30 BEGIN CTAB
M  V30 COUNTS 8 7 0 0 0
M  V30 BEGIN ATOM
M  V30 1 O 0.0 0.0 0.0 0
M  V30 2 C 1.2815 0.8136 0.0 0
M  V30 3 C 2.563 0.0813 0.0 0
M  V30 4 C 3.8445 0.895 0.0 0
M  V30 5 C 5.126 0.1627 0.0 0
M  V30 6 C 6.4076 0.9763 0.0 0
M  V30 7 C 7.6891 0.244 0.0 0
M  V30 8 C 8.9706 1.0577 0.0 0
M  V30 END ATOM
M  V30 BEGIN BOND
M  V30 1 1 1 2
M  V30 2 1 2 3
M  V30 3 1 3 4
M  V30 4 1 4 5
M  V30 5 1 5 6
M  V30 6 1 6 7
M  V30 7 1 7 8
M  V30 END BOND
M  V30 END CTAB
M  END
>  <Molecule Name>
heptanol

>  <Molecule Name 2>
heptanol

>  <Database>
Essential Oil Database

>  <InChI>
InChI=1S/C7H16O/c1-2-3-4-5-6-7-8/h8H,2-7H2,1H3

>  <InChI-Key>
BBMCTIGTTCKYKF-UHFFFAOYSA-N

>  <Smiles>
CCCCCCCO

>  <Molecular Formula>
C7H16O

$$$$
hexyl benzoate
Actelion Java MolfileCreator 2.0

  0  0  0  0  0  0              0 V3000
M  V30 BEGIN CTAB
M  V30 COUNTS 15 15 0 0 0
M  V30 BEGIN ATOM
M  V30 1 O 0.0 0.0 0.0 0
M  V30 2 C -0.0483 1.5461 0.0 0
M  V30 3 O 1.1958 2.3192 0.0 0
M  V30 4 C -1.3891 2.3192 0.0 0
M  V30 5 C 2.44 1.6065 0.0 0
M  V30 6 C -2.7299 1.6065 0.0 0
M  V30 7 C -1.4374 3.8654 0.0 0
M  V30 8 C 3.6842 2.3796 0.0 0
M  V30 9 C -4.0708 2.3796 0.0 0
M  V30 10 C -2.7782 4.6506 0.0 0
M  V30 11 C 4.9284 1.6669 0.0 0
M  V30 12 C -4.1191 3.9258 0.0 0
M  V30 13 C 6.1726 2.44 0.0 0
M  V30 14 C 7.4168 1.7273 0.0 0
M  V30 15 C 8.661 2.5125 0.0 0
M  V30 END ATOM
M  V30 BEGIN BOND
M  V30 1 2 1 2
M  V30 2 1 2 3
M  V30 3 1 2 4
M  V30 4 1 3 5
M  V30 5 2 4 6
M  V30 6 1 4 7
M  V30 7 1 5 8
M  V30 8 1 6 9
M  V30 9 2 7 10
M  V30 10 1 8 11
M  V30 11 2 9 12
M  V30 12 1 11 13
M  V30 13 1 13 14
M  V30 14 1 14 15
M  V30 15 1 10 12
M  V30 END BOND
M  V30 END CTAB
M  END
>  <Molecule Name>
hexyl benzoate

>  <Molecule Name 2>
hexyl benzoate

>  <Database>
Essential Oil Database

>  <InChI>
InChI=1S/C13H18O2/c1-2-3-4-8-11-15-13(14)12-9-6-5-7-10-12/h5-7,9-10H,2-4,8,11H2,1H3

>  <InChI-Key>
UUGLJVMIFJNVFH-UHFFFAOYSA-N

>  <Smiles>
CCCCCCOC(c1ccccc1)=O

>  <Molecular Formula>
C13H18O2

$$$$
alpha-cedrol
Actelion Java MolfileCreator 2.0

  0  0  0  0  0  0              0 V3000
M  V30 BEGIN CTAB
M  V30 COUNTS 16 18 0 0 0
M  V30 BEGIN ATOM
M  V30 1 O 0.0 0.0 0.0 0
M  V30 2 C -1.0184 -1.0423 0.0 0 CFG=1
M  V30 3 C -2.2525 -0.0239 0.0 0 CFG=1
M  V30 4 C -1.3299 -2.4921 0.0 0
M  V30 5 C 0.3953 -1.1981 0.0 0
M  V30 6 C -3.6663 0.7188 0.0 0
M  V30 7 C -3.1271 -1.0064 0.0 0
M  V30 8 C -2.8635 -2.8875 0.0 0
M  V30 9 C -4.7925 -0.3594 0.0 0 CFG=1
M  V30 10 C -4.8644 1.6654 0.0 0
M  V30 11 C -2.9234 2.0128 0.0 0
M  V30 12 C -4.1096 -1.7852 0.0 0 CFG=2
M  V30 13 C -6.3142 -0.4552 0.0 0
M  V30 14 C -5.3437 -2.6478 0.0 0 CFG=1
M  V30 15 C -6.6856 -1.8571 0.0 0
M  V30 16 C -5.2957 -4.0736 0.0 0
M  V30 END ATOM
M  V30 BEGIN BOND
M  V30 1 1 2 1 CFG=3
M  V30 2 1 2 3
M  V30 3 1 2 4
M  V30 4 1 2 5
M  V30 5 1 3 6
M  V30 6 1 3 7 CFG=1
M  V30 7 1 4 8
M  V30 8 1 6 9
M  V30 9 1 6 10
M  V30 10 1 6 11
M  V30 11 1 12 7 CFG=1
M  V30 12 1 9 13 CFG=1
M  V30 13 1 12 14
M  V30 14 1 13 15
M  V30 15 1 14 16 CFG=3
M  V30 16 1 8 12
M  V30 17 1 9 12
M  V30 18 1 14 15
M  V30 END BOND
M  V30 BEGIN COLLECTION
M  V30 MDLV30/STEABS ATOMS=(5 2 3 9 12 14)
M  V30 END COLLECTION
M  V30 END CTAB
M  END
>  <Molecule Name>
alpha-cedrol

>  <Molecule Name 2>
alpha-cedrol

>  <Database>
Essential Oil Database

>  <InChI>
InChI=1S/C15H26O/c1-10-5-6-11-13(2,3)12-9-15(10,11)8-7-14(12,4)16/h10-12,16H,5-9H2,1-4H3/t10-,11+,12-,14-,15+/m1/s1

>  <InChI-Key>
SVURIXNDRWRAFU-OGMFBOKVSA-N

>  <Smiles>
C[C@H](CC1)[C@@](C2)(CC3)[C@@H]1C(C)(C)[C@@H]2[C@]3(C)O

>  <Molecular Formula>
C15H26O

$$$$
germacrene a
Actelion Java MolfileCreator 2.0

  0  0  0  0  0  0              0 V3000
M  V30 BEGIN CTAB
M  V30 COUNTS 15 15 0 0 0
M  V30 BEGIN ATOM
M  V30 1 C 0.0 0.0 0.0 0
M  V30 2 C 1.0192 1.0778 0.0 0
M  V30 3 C 0.3163 -1.4058 0.0 0
M  V30 4 C -1.4878 0.4686 0.0 0
M  V30 5 C 0.6091 2.5773 0.0 0
M  V30 6 C 1.7104 -1.7807 0.0 0
M  V30 7 C 1.6284 3.6551 0.0 0 CFG=2
M  V30 8 C 2.7296 -0.7029 0.0 0
M  V30 9 C 1.2183 5.1547 0.0 0
M  V30 10 C 3.0225 3.2802 0.0 0
M  V30 11 C 2.3196 0.7966 0.0 0
M  V30 12 C 2.2376 6.2325 0.0 0
M  V30 13 C -0.2694 5.6233 0.0 0
M  V30 14 C 3.3388 1.8744 0.0 0
M  V30 15 C 0.8669 0.3163 0.0 0
M  V30 END ATOM
M  V30 BEGIN BOND
M  V30 1 2 1 2
M  V30 2 1 1 3
M  V30 3 1 1 4
M  V30 4 1 2 5
M  V30 5 1 3 6
M  V30 6 1 5 7
M  V30 7 1 6 8
M  V30 8 1 7 9 CFG=3
M  V30 9 1 7 10
M  V30 10 2 8 11
M  V30 11 2 9 12
M  V30 12 1 9 13
M  V30 13 1 10 14
M  V30 14 1 11 15
M  V30 15 1 11 14
M  V30 END BOND
M  V30 BEGIN COLLECTION
M  V30 MDLV30/STEABS ATOMS=(1 7)
M  V30 END COLLECTION
M  V30 END CTAB
M  END
>  <Molecule Name>
germacrene a

>  <Molecule Name 2>
germacrene a

>  <Database>
Essential Oil Database

>  <InChI>
InChI=1S/C15H24/c1-12(2)15-10-8-13(3)6-5-7-14(4)9-11-15/h6,9,15H,1,5,7-8,10-11H2,2-4H3/b13-6-,14-9+/t15-/m1/s1

>  <InChI-Key>
XMRKUJJDDKYUHV-NZSOWGIUSA-N

>  <Smiles>
CC([C@H]1C/C=C(\C)/CC/C=C(\C)/CC1)=C

>  <Molecular Formula>
C15H24

$$$$
trans-p-mentha-1(7),8-dien-2-ol
Actelion Java MolfileCreator 2.0

  0  0  0  0  0  0              0 V3000
M  V30 BEGIN CTAB
M  V30 COUNTS 11 11 0 0 0
M  V30 BEGIN ATOM
M  V30 1 O 0.0 0.0 0.0 0
M  V30 2 C 1.2741 -0.7422 0.0 0 CFG=2
M  V30 3 C 2.5483 0.0494 0.0 0
M  V30 4 C 1.2246 -2.2267 0.0 0
M  V30 5 C 2.4988 1.6329 0.0 0
M  V30 6 C 3.8225 -0.6803 0.0 0
M  V30 7 C 2.4988 -2.9689 0.0 0 CFG=1
M  V30 8 C 3.773 -2.1648 0.0 0
M  V30 9 C 2.4493 -4.4534 0.0 0
M  V30 10 C 3.7235 -5.1956 0.0 0
M  V30 11 C 1.0762 -5.1956 0.0 0
M  V30 END ATOM
M  V30 BEGIN BOND
M  V30 1 1 2 1 CFG=3
M  V30 2 1 2 3
M  V30 3 1 2 4
M  V30 4 2 3 5
M  V30 5 1 3 6
M  V30 6 1 4 7
M  V30 7 1 6 8
M  V30 8 1 7 9 CFG=1
M  V30 9 2 9 10
M  V30 10 1 9 11
M  V30 11 1 7 8
M  V30 END BOND
M  V30 BEGIN COLLECTION
M  V30 MDLV30/STERAC1 ATOMS=(2 2 7)
M  V30 END COLLECTION
M  V30 END CTAB
M  END
>  <Molecule Name>
trans-p-mentha-1(7),8-dien-2-ol

>  <Molecule Name 2>
trans-p-mentha-1(7),8-dien-2-ol

>  <Database>
Essential Oil Database

>  <InChI>
InChI=1S/C10H16O/c1-7(2)9-5-4-8(3)10(11)6-9/h9-11H,1,3-6H2,2H3/t9-,10+/m1/s1

>  <InChI-Key>
PNVTXOFNJFHXOK-ZJUUUORDSA-N

>  <Smiles>
CC([C@H](CCC1=C)C[C@@H]1O)=C

>  <Molecular Formula>
C10H16O

$$$$
valeranone
Actelion Java MolfileCreator 2.0

  0  0  0  0  0  0              0 V3000
M  V30 BEGIN CTAB
M  V30 COUNTS 6 5 0 0 0
M  V30 BEGIN ATOM
M  V30 1 O 0.0 0.0 0.0 0
M  V30 2 C 1.4892 0.0472 0.0 0
M  V30 3 C 2.1866 -1.241 0.0 0
M  V30 4 C 2.1866 1.4302 0.0 0
M  V30 5 C 1.3592 -2.5294 0.0 0
M  V30 6 C 2.0566 -3.8178 0.0 0
M  V30 END ATOM
M  V30 BEGIN BOND
M  V30 1 2 1 2
M  V30 2 1 2 3
M  V30 3 1 2 4
M  V30 4 1 3 5
M  V30 5 1 5 6
M  V30 END BOND
M  V30 END CTAB
M  END
>  <Molecule Name>
valeranone

>  <Molecule Name 2>
valeranone

>  <Database>
Essential Oil Database

>  <InChI>
InChI=1S/C5H10O/c1-3-4-5(2)6/h3-4H2,1-2H3

>  <InChI-Key>
XNLICIUVMPYHGG-UHFFFAOYSA-N

>  <Smiles>
CCCC(C)=O

>  <Molecular Formula>
C5H10O

$$$$
curzerene
Actelion Java MolfileCreator 2.0

  0  0  0  0  0  0              0 V3000
M  V30 BEGIN CTAB
M  V30 COUNTS 16 17 0 0 0
M  V30 BEGIN ATOM
M  V30 1 O 0.0 0.0 0.0 0
M  V30 2 C 1.4103 -0.4113 0.0 0
M  V30 3 C -0.9637 -1.1988 0.0 0
M  V30 4 C 1.3633 -1.8922 0.0 0
M  V30 5 C 2.6914 0.4113 0.0 0
M  V30 6 C -0.094 -2.3976 0.0 0
M  V30 7 C 2.6444 -2.5857 0.0 0
M  V30 8 C 3.9725 -0.282 0.0 0 CFG=2
M  V30 9 C -0.5994 -3.808 0.0 0
M  V30 10 C 3.9255 -1.7629 0.0 0
M  V30 11 C 5.4534 -0.188 0.0 0
M  V30 12 C 4.7483 1.0695 0.0 0
M  V30 13 C 5.2066 -2.4564 0.0 0
M  V30 14 C 6.1116 1.2105 0.0 0
M  V30 15 C 5.1596 -3.9373 0.0 0
M  V30 16 C 6.4877 -1.6336 0.0 0
M  V30 END ATOM
M  V30 BEGIN BOND
M  V30 1 1 1 2
M  V30 2 1 1 3
M  V30 3 2 2 4
M  V30 4 1 2 5
M  V30 5 2 3 6
M  V30 6 1 4 7
M  V30 7 1 5 8
M  V30 8 1 6 9
M  V30 9 1 7 10
M  V30 10 1 8 11
M  V30 11 1 8 12 CFG=3
M  V30 12 1 10 13
M  V30 13 2 11 14
M  V30 14 2 13 15
M  V30 15 1 13 16
M  V30 16 1 4 6
M  V30 17 1 8 10
M  V30 END BOND
M  V30 BEGIN COLLECTION
M  V30 MDLV30/STEABS ATOMS=(1 8)
M  V30 END COLLECTION
M  V30 END CTAB
M  END
>  <Molecule Name>
curzerene

>  <Molecule Name 2>
curzerene

>  <Database>
Essential Oil Database

>  <InChI>
InChI=1S/C15H20O/c1-6-15(5)8-14-12(11(4)9-16-14)7-13(15)10(2)3/h6,9,13H,1-2,7-8H2,3-5H3/t13?,15-/m1/s1

>  <InChI-Key>
HICAMHOOTMOHPA-AWKYBWMHSA-N

>  <Smiles>
C[C@@](Cc1c(C2)c(C)c[o]1)(C2C(C)=C)C=C

>  <Molecular Formula>
C15H20O

$$$$
curzerenone
Actelion Java MolfileCreator 2.0

  0  0  0  0  0  0              0 V3000
M  V30 BEGIN CTAB
M  V30 COUNTS 17 18 0 0 0
M  V30 BEGIN ATOM
M  V30 1 O 0.0 0.0 0.0 0
M  V30 2 C -0.048 1.5365 0.0 0
M  V30 3 C -1.3805 2.3168 0.0 0
M  V30 4 C 1.1884 2.3168 0.0 0 CFG=2
M  V30 5 C -1.4285 3.8534 0.0 0
M  V30 6 C -2.845 1.8967 0.0 0
M  V30 7 C 2.4249 1.6085 0.0 0
M  V30 8 C 1.1404 3.8534 0.0 0 CFG=2
M  V30 9 O -2.893 4.3696 0.0 0
M  V30 10 C -0.192 4.6337 0.0 0
M  V30 11 C -3.7573 3.1451 0.0 0
M  V30 12 C -3.3612 0.5281 0.0 0
M  V30 13 C 2.3768 0.168 0.0 0
M  V30 14 C 3.6613 2.3888 0.0 0
M  V30 15 C 2.5809 3.9494 0.0 0
M  V30 16 C 1.8847 5.1619 0.0 0
M  V30 17 C 3.2532 5.3059 0.0 0
M  V30 END ATOM
M  V30 BEGIN BOND
M  V30 1 2 1 2
M  V30 2 1 2 3
M  V30 3 1 2 4
M  V30 4 2 3 5
M  V30 5 1 3 6
M  V30 6 1 4 7 CFG=1
M  V30 7 1 4 8
M  V30 8 1 5 9
M  V30 9 1 5 10
M  V30 10 2 6 11
M  V30 11 1 6 12
M  V30 12 2 7 13
M  V30 13 1 7 14
M  V30 14 1 8 15
M  V30 15 1 8 16 CFG=1
M  V30 16 2 15 17
M  V30 17 1 8 10
M  V30 18 1 9 11
M  V30 END BOND
M  V30 BEGIN COLLECTION
M  V30 MDLV30/STEABS ATOMS=(2 4 8)
M  V30 END COLLECTION
M  V30 END CTAB
M  END
>  <Molecule Name>
curzerenone

>  <Molecule Name 2>
curzerenone

>  <Database>
Essential Oil Database

>  <InChI>
InChI=1S/C15H18O2/c1-6-15(5)7-11-12(10(4)8-17-11)14(16)13(15)9(2)3/h6,8,13H,1-2,7H2,3-5H3/t13-,15-/m0/s1

>  <InChI-Key>
ZVMJXSJCBLRAPD-ZFWWWQNUSA-N

>  <Smiles>
C[C@](Cc1c2c(C)c[o]1)([C@@H](C(C)=C)C2=O)C=C

>  <Molecular Formula>
C15H18O2

$$$$
germacrone
Actelion Java MolfileCreator 2.0

  0  0  0  0  0  0              0 V3000
M  V30 BEGIN CTAB
M  V30 COUNTS 16 16 0 0 0
M  V30 BEGIN ATOM
M  V30 1 O 0.0 0.0 0.0 0
M  V30 2 C 1.0477 -1.0115 0.0 0
M  V30 3 C 2.4807 -0.5298 0.0 0
M  V30 4 C 0.6262 -2.4566 0.0 0
M  V30 5 C 2.8059 1.0115 0.0 0
M  V30 6 C 3.5284 -1.5414 0.0 0
M  V30 7 C 1.6739 -3.4682 0.0 0
M  V30 8 C 4.2389 1.4932 0.0 0
M  V30 9 C 1.6618 2.1194 0.0 0
M  V30 10 C 3.1069 -2.9865 0.0 0
M  V30 11 C 1.2524 -4.9133 0.0 0
M  V30 12 C 3.0708 -3.9619 0.0 0
M  V30 13 C 4.1546 -3.9981 0.0 0
M  V30 14 C 2.3001 -5.9249 0.0 0
M  V30 15 C 3.7331 -5.4432 0.0 0
M  V30 16 C 5.5877 -3.5164 0.0 0
M  V30 END ATOM
M  V30 BEGIN BOND
M  V30 1 2 1 2
M  V30 2 1 2 3
M  V30 3 1 2 4
M  V30 4 2 3 5
M  V30 5 1 3 6
M  V30 6 1 4 7
M  V30 7 1 5 8
M  V30 8 1 5 9
M  V30 9 1 6 10
M  V30 10 2 7 11
M  V30 11 1 7 12
M  V30 12 2 10 13
M  V30 13 1 11 14
M  V30 14 1 13 15
M  V30 15 1 13 16
M  V30 16 1 14 15
M  V30 END BOND
M  V30 END CTAB
M  END
>  <Molecule Name>
germacrone

>  <Molecule Name 2>
germacrone

>  <Database>
Essential Oil Database

>  <InChI>
InChI=1S/C15H22O/c1-11(2)14-9-8-12(3)6-5-7-13(4)10-15(14)16/h7-8H,5-6,9-10H2,1-4H3/b12-8+,13-7+

>  <InChI-Key>
CAULGCQHVOVVRN-SWZPTJTJSA-N

>  <Smiles>
CC(C)=C(C/C=C(\C)/CC/C=C(\C)/C1)C1=O

>  <Molecular Formula>
C15H22O

$$$$
alpha-santonin
Actelion Java MolfileCreator 2.0

  0  0  0  0  0  0              0 V3000
M  V30 BEGIN CTAB
M  V30 COUNTS 18 20 0 0 0
M  V30 BEGIN ATOM
M  V30 1 O 0.0 0.0 0.0 0
M  V30 2 C -0.8045 1.2896 0.0 0
M  V30 3 C -2.319 1.2896 0.0 0
M  V30 4 C -0.1419 2.6266 0.0 0
M  V30 5 C -3.1236 2.5793 0.0 0
M  V30 6 C -3.0762 0.0473 0.0 0
M  V30 7 C -0.9465 3.9163 0.0 0
M  V30 8 C -2.461 3.9163 0.0 0 CFG=2
M  V30 9 C -4.638 2.5793 0.0 0 CFG=1
M  V30 10 C -3.2655 5.206 0.0 0
M  V30 11 C -1.7984 5.2533 0.0 0
M  V30 12 O -5.6201 1.5144 0.0 0
M  V30 13 C -5.4426 3.869 0.0 0 CFG=1
M  V30 14 C -4.78 5.206 0.0 0
M  V30 15 C -7.0281 2.1297 0.0 0
M  V30 16 C -6.9098 3.5613 0.0 0 CFG=1
M  V30 17 O -8.3178 1.4079 0.0 0
M  V30 18 C -8.0693 4.5434 0.0 0
M  V30 END ATOM
M  V30 BEGIN BOND
M  V30 1 2 1 2
M  V30 2 1 2 3
M  V30 3 1 2 4
M  V30 4 2 3 5
M  V30 5 1 3 6
M  V30 6 2 4 7
M  V30 7 1 5 8
M  V30 8 1 5 9
M  V30 9 1 8 10
M  V30 10 1 8 11 CFG=3
M  V30 11 1 9 12 CFG=1
M  V30 12 1 9 13
M  V30 13 1 10 14
M  V30 14 1 12 15
M  V30 15 1 13 16
M  V30 16 2 15 17
M  V30 17 1 16 18 CFG=1
M  V30 18 1 7 8
M  V30 19 1 13 14 CFG=3
M  V30 20 1 15 16
M  V30 END BOND
M  V30 BEGIN COLLECTION
M  V30 MDLV30/STEABS ATOMS=(4 8 9 13 16)
M  V30 END COLLECTION
M  V30 END CTAB
M  END
>  <Molecule Name>
alpha-santonin

>  <Molecule Name 2>
alpha-santonin

>  <Database>
Essential Oil Database

>  <InChI>
InChI=1S/C15H18O3/c1-8-10-4-6-15(3)7-5-11(16)9(2)12(15)13(10)18-14(8)17/h5,7-8,10,13H,4,6H2,1-3H3/t8-,10-,13-,15-/m0/s1

>  <InChI-Key>
XJHDMGJURBVLLE-BOCCBSBMSA-N

>  <Smiles>
C[C@@H]([C@H](CC[C@@](C)(C=C1)C2=C(C)C1=O)[C@@H]2O1)C1=O

>  <Molecular Formula>
C15H18O3

$$$$
atractylone
Actelion Java MolfileCreator 2.0

  0  0  0  0  0  0              0 V3000
M  V30 BEGIN CTAB
M  V30 COUNTS 16 18 0 0 0
M  V30 BEGIN ATOM
M  V30 1 O 0.0 0.0 0.0 0
M  V30 2 C -1.475 -0.4231 0.0 0
M  V30 3 C 0.8221 -1.1607 0.0 0
M  V30 4 C -1.5234 -1.874 0.0 0
M  V30 5 C -2.8171 0.3506 0.0 0
M  V30 6 C -0.0967 -2.3214 0.0 0
M  V30 7 C -2.8655 -2.5874 0.0 0
M  V30 8 C -4.1592 -0.3627 0.0 0 CFG=2
M  V30 9 C 0.3264 -3.6997 0.0 0
M  V30 10 C -4.2076 -1.8015 0.0 0 CFG=2
M  V30 11 C -5.5013 0.4231 0.0 0
M  V30 12 C -4.2076 1.1848 0.0 0
M  V30 13 C -5.5496 -2.5148 0.0 0
M  V30 14 C -6.8434 -0.2901 0.0 0
M  V30 15 C -5.598 -3.9657 0.0 0
M  V30 16 C -6.8917 -1.7289 0.0 0
M  V30 END ATOM
M  V30 BEGIN BOND
M  V30 1 1 1 2
M  V30 2 1 1 3
M  V30 3 2 2 4
M  V30 4 1 2 5
M  V30 5 2 3 6
M  V30 6 1 4 7
M  V30 7 1 5 8
M  V30 8 1 6 9
M  V30 9 1 10 7 CFG=1
M  V30 10 1 8 11
M  V30 11 1 8 12 CFG=1
M  V30 12 1 10 13
M  V30 13 1 11 14
M  V30 14 2 13 15
M  V30 15 1 13 16
M  V30 16 1 4 6
M  V30 17 1 8 10
M  V30 18 1 14 16
M  V30 END BOND
M  V30 BEGIN COLLECTION
M  V30 MDLV30/STEABS ATOMS=(2 8 10)
M  V30 END COLLECTION
M  V30 END CTAB
M  END
>  <Molecule Name>
atractylone

>  <Molecule Name 2>
atractylone

>  <Database>
Essential Oil Database

>  <InChI>
InChI=1S/C15H20O/c1-10-5-4-6-15(3)8-14-12(7-13(10)15)11(2)9-16-14/h9,13H,1,4-8H2,2-3H3/t13-,15+/m0/s1

>  <InChI-Key>
TYPSVDGIQAOBAD-DZGCQCFKSA-N

>  <Smiles>
C[C@@](CCC1)(Cc2c(C3)c(C)c[o]2)[C@@H]3C1=C

>  <Molecular Formula>
C15H20O

$$$$
khusimol
Actelion Java MolfileCreator 2.0

  0  0  0  0  0  0              0 V3000
M  V30 BEGIN CTAB
M  V30 COUNTS 16 18 0 0 0
M  V30 BEGIN ATOM
M  V30 1 O 0.0 0.0 0.0 0
M  V30 2 C 1.3444 -0.5277 0.0 0
M  V30 3 C 1.5077 -1.96 0.0 0 CFG=2
M  V30 4 C 0.3266 -2.9401 0.0 0 CFG=1
M  V30 5 C 2.8144 -2.6008 0.0 0
M  V30 6 C 1.0931 -4.2845 0.0 0 CFG=2
M  V30 7 C -0.7538 -3.6688 0.0 0
M  V30 8 C -1.0428 -1.9349 0.0 0
M  V30 9 C 2.5506 -4.0458 0.0 0
M  V30 10 C 0.3015 -5.6415 0.0 0
M  V30 11 C -1.9726 -4.2971 0.0 0 CFG=1
M  V30 12 C -2.4249 -2.739 0.0 0
M  V30 13 C 1.0428 -6.8728 0.0 0
M  V30 14 C -1.3067 -5.5661 0.0 0
M  V30 15 C -2.7767 -6.0184 0.0 0
M  V30 16 C -1.1056 -6.9985 0.0 0
M  V30 END ATOM
M  V30 BEGIN BOND
M  V30 1 1 1 2
M  V30 2 1 3 2 CFG=1
M  V30 3 1 3 4
M  V30 4 1 3 5
M  V30 5 1 4 6
M  V30 6 1 4 7 CFG=1
M  V30 7 1 4 8
M  V30 8 1 5 9
M  V30 9 1 6 10 CFG=3
M  V30 10 1 7 11
M  V30 11 1 8 12
M  V30 12 2 10 13
M  V30 13 1 10 14
M  V30 14 1 14 15
M  V30 15 1 14 16
M  V30 16 1 6 9
M  V30 17 1 11 12
M  V30 18 1 11 14 CFG=3
M  V30 END BOND
M  V30 BEGIN COLLECTION
M  V30 MDLV30/STEABS ATOMS=(4 3 4 6 11)
M  V30 END COLLECTION
M  V30 END CTAB
M  END
>  <Molecule Name>
khusimol

>  <Molecule Name 2>
khusimol

>  <Database>
Essential Oil Database

>  <InChI>
InChI=1S/C15H24O/c1-10-13-5-4-12(9-16)15(13)7-6-11(8-15)14(10,2)3/h11-13,16H,1,4-9H2,2-3H3/t11-,12-,13-,15+/m1/s1

>  <InChI-Key>
OOYRHNIVDZZGQV-BHPKHCPMSA-N

>  <Smiles>
CC(C)([C@H](CC1)C[C@@]11[C@@H]2CC[C@@H]1CO)C2=C

>  <Molecular Formula>
C15H24O

$$$$
hinesol
Actelion Java MolfileCreator 2.0

  0  0  0  0  0  0              0 V3000
M  V30 BEGIN CTAB
M  V30 COUNTS 16 17 0 0 0
M  V30 BEGIN ATOM
M  V30 1 O 0.0 0.0 0.0 0
M  V30 2 C 0.8607 1.2795 0.0 0
M  V30 3 C 2.0472 0.4187 0.0 0 CFG=1
M  V30 4 C -0.4187 2.2333 0.0 0
M  V30 5 C 1.7215 2.559 0.0 0
M  V30 6 C 3.443 0.9189 0.0 0
M  V30 7 C 2.0007 -1.0468 0.0 0
M  V30 8 C 4.3038 -0.2675 0.0 0 CFG=2
M  V30 9 C 3.3965 -1.454 0.0 0
M  V30 10 C 5.0017 -1.5354 0.0 0
M  V30 11 C 5.0017 1.0934 0.0 0 CFG=2
M  V30 12 C 6.4674 -1.4889 0.0 0
M  V30 13 C 4.1759 -2.8033 0.0 0
M  V30 14 C 6.4674 1.1399 0.0 0
M  V30 15 C 4.1759 2.4543 0.0 0
M  V30 16 C 7.1653 -0.1279 0.0 0
M  V30 END ATOM
M  V30 BEGIN BOND
M  V30 1 1 1 2
M  V30 2 1 3 2 CFG=1
M  V30 3 1 2 4
M  V30 4 1 2 5
M  V30 5 1 3 6
M  V30 6 1 3 7
M  V30 7 1 6 8
M  V30 8 1 7 9
M  V30 9 1 8 10 CFG=1
M  V30 10 1 8 11
M  V30 11 2 10 12
M  V30 12 1 10 13
M  V30 13 1 11 14
M  V30 14 1 11 15 CFG=1
M  V30 15 1 12 16
M  V30 16 1 8 9
M  V30 17 1 14 16
M  V30 END BOND
M  V30 BEGIN COLLECTION
M  V30 MDLV30/STEABS ATOMS=(3 3 8 11)
M  V30 END COLLECTION
M  V30 END CTAB
M  END
>  <Molecule Name>
hinesol

>  <Molecule Name 2>
hinesol

>  <Database>
Essential Oil Database

>  <InChI>
InChI=1S/C15H26O/c1-11-6-5-7-12(2)15(11)9-8-13(10-15)14(3,4)16/h6,12-13,16H,5,7-10H2,1-4H3/t12-,13+,15+/m0/s1

>  <InChI-Key>
ICWHTQRTTHCUHW-GZBFAFLISA-N

>  <Smiles>
C[C@@H]1[C@](CC2)(C[C@@H]2C(C)(C)O)C(C)=CCC1

>  <Molecular Formula>
C15H26O

$$$$
1-octen-3-one
Actelion Java MolfileCreator 2.0

  0  0  0  0  0  0              0 V3000
M  V30 BEGIN CTAB
M  V30 COUNTS 9 8 0 0 0
M  V30 BEGIN ATOM
M  V30 1 O 0.0 0.0 0.0 0
M  V30 2 C -0.0486 1.5567 0.0 0
M  V30 3 C -1.3986 2.3473 0.0 0
M  V30 4 C 1.204 2.3473 0.0 0
M  V30 5 C -2.7486 1.6175 0.0 0
M  V30 6 C 2.4567 1.6175 0.0 0
M  V30 7 C 3.7094 2.4081 0.0 0
M  V30 8 C 4.9621 1.6783 0.0 0
M  V30 9 C 6.2149 2.4689 0.0 0
M  V30 END ATOM
M  V30 BEGIN BOND
M  V30 1 2 1 2
M  V30 2 1 2 3
M  V30 3 1 2 4
M  V30 4 2 3 5
M  V30 5 1 4 6
M  V30 6 1 6 7
M  V30 7 1 7 8
M  V30 8 1 8 9
M  V30 END BOND
M  V30 END CTAB
M  END
>  <Molecule Name>
1-octen-3-one

>  <Molecule Name 2>
1-octen-3-one

>  <Database>
Essential Oil Database

>  <InChI>
InChI=1S/C8H14O/c1-3-5-6-7-8(9)4-2/h4H,2-3,5-7H2,1H3

>  <InChI-Key>
KLTVSWGXIAYTHO-UHFFFAOYSA-N

>  <Smiles>
CCCCCC(C=C)=O

>  <Molecular Formula>
C8H14O

$$$$
(e)-2-octenal
Actelion Java MolfileCreator 2.0

  0  0  0  0  0  0              0 V3000
M  V30 BEGIN CTAB
M  V30 COUNTS 9 8 0 0 0
M  V30 BEGIN ATOM
M  V30 1 O 0.0 0.0 0.0 0
M  V30 2 C -0.0494 1.5813 0.0 0
M  V30 3 C 1.223 2.3843 0.0 0
M  V30 4 C 2.4955 1.6554 0.0 0
M  V30 5 C 3.7679 2.4584 0.0 0
M  V30 6 C 5.0404 1.7295 0.0 0
M  V30 7 C 6.3128 2.5325 0.0 0
M  V30 8 C 7.5853 1.8036 0.0 0
M  V30 9 C 8.8578 2.6066 0.0 0
M  V30 END ATOM
M  V30 BEGIN BOND
M  V30 1 2 1 2
M  V30 2 1 2 3
M  V30 3 2 3 4
M  V30 4 1 4 5
M  V30 5 1 5 6
M  V30 6 1 6 7
M  V30 7 1 7 8
M  V30 8 1 8 9
M  V30 END BOND
M  V30 END CTAB
M  END
>  <Molecule Name>
(e)-2-octenal

>  <Molecule Name 2>
(e)-2-octenal

>  <Database>
Essential Oil Database

>  <InChI>
InChI=1S/C8H14O/c1-2-3-4-5-6-7-8-9/h6-8H,2-5H2,1H3/b7-6+

>  <InChI-Key>
LVBXEMGDVWVTGY-VOTSOKGWSA-N

>  <Smiles>
CCCCC/C=C/C=O

>  <Molecular Formula>
C8H14O

$$$$
heptyl-2-methyl butyrate linalool
Actelion Java MolfileCreator 2.0

  0  0  0  0  0  0              0 V3000
M  V30 BEGIN CTAB
M  V30 COUNTS 24 23 0 0 0
M  V30 BEGIN ATOM
M  V30 1 O 0.0 0.0 0.0 0
M  V30 2 C -0.0486 -1.459 0.0 0
M  V30 3 O -1.3982 -2.1885 0.0 0
M  V30 4 C 1.2036 -2.1885 0.0 0
M  V30 5 C -2.7478 -1.3982 0.0 0
M  V30 6 C 2.456 -1.3982 0.0 0
M  V30 7 C 1.155 -3.6475 0.0 0
M  V30 8 C -2.0304 -0.0486 0.0 0
M  V30 9 C -4.0974 -0.6079 0.0 0
M  V30 10 C -3.5381 -2.6505 0.0 0
M  V30 11 C 3.7083 -2.1277 0.0 0
M  V30 12 C -2.8207 1.3009 0.0 0
M  V30 13 C -5.447 -1.3252 0.0 0
M  V30 14 C 4.9606 -1.3374 0.0 0
M  V30 15 C -6.7966 -0.5349 0.0 0
M  V30 16 C 6.213 -2.0669 0.0 0
M  V30 17 C -6.8452 1.0213 0.0 0
M  V30 18 C 7.4653 -1.2766 0.0 0
M  V30 19 C -8.1948 1.8116 0.0 0
M  V30 20 C -5.5929 1.8116 0.0 0
M  V30 21 C 8.7176 -2.0061 0.0 0
M  V30 22 C 9.9699 -1.2158 0.0 0
M  V30 23 C 11.2223 -1.9453 0.0 0
M  V30 24 C 12.4746 -1.155 0.0 0
M  V30 END ATOM
M  V30 BEGIN BOND
M  V30 1 2 1 2
M  V30 2 1 2 3
M  V30 3 1 2 4
M  V30 4 1 3 5
M  V30 5 1 4 6
M  V30 6 1 4 7
M  V30 7 1 5 8
M  V30 8 1 5 9
M  V30 9 1 5 10
M  V30 10 1 6 11
M  V30 11 2 8 12
M  V30 12 1 9 13
M  V30 13 1 11 14
M  V30 14 1 13 15
M  V30 15 1 14 16
M  V30 16 2 15 17
M  V30 17 1 16 18
M  V30 18 1 17 19
M  V30 19 1 17 20
M  V30 20 1 18 21
M  V30 21 1 21 22
M  V30 22 1 22 23
M  V30 23 1 23 24
M  V30 END BOND
M  V30 END CTAB
M  END
>  <Molecule Name>
heptyl-2-methyl butyrate linalool

>  <Molecule Name 2>
heptyl-2-methyl butyrate linalool

>  <Database>
Essential Oil Database

>  <InChI>
InChI=1S/C22H40O2/c1-7-9-10-11-12-13-14-17-20(5)21(23)24-22(6,8-2)18-15-16-19(3)4/h8,16,20H,2,7,9-15,17-18H2,1,3-6H3

>  <InChI-Key>
WPLSTHNRYGISDH-UHFFFAOYSA-N

>  <Smiles>
CCCCCCCCCC(C)C(OC(C)(CCC=C(C)C)C=C)=O

>  <Molecular Formula>
C22H40O2

$$$$
2-ethylhexanol
Actelion Java MolfileCreator 2.0

  0  0  0  0  0  0              0 V3000
M  V30 BEGIN CTAB
M  V30 COUNTS 9 8 0 0 0
M  V30 BEGIN ATOM
M  V30 1 O 0.0 0.0 0.0 0
M  V30 2 C -1.512 0.0472 0.0 0
M  V30 3 C -2.2799 1.3585 0.0 0 CFG=2
M  V30 4 C -3.7919 1.4057 0.0 0
M  V30 5 C -1.5711 2.6697 0.0 0
M  V30 6 C -4.548 2.717 0.0 0
M  V30 7 C -0.1535 2.717 0.0 0
M  V30 8 C -6.0601 2.7642 0.0 0
M  V30 9 C -6.8279 4.0755 0.0 0
M  V30 END ATOM
M  V30 BEGIN BOND
M  V30 1 1 1 2
M  V30 2 1 3 2 CFG=3
M  V30 3 1 3 4
M  V30 4 1 3 5
M  V30 5 1 4 6
M  V30 6 1 5 7
M  V30 7 1 6 8
M  V30 8 1 8 9
M  V30 END BOND
M  V30 BEGIN COLLECTION
M  V30 MDLV30/STERAC1 ATOMS=(1 3)
M  V30 END COLLECTION
M  V30 END CTAB
M  END
>  <Molecule Name>
2-ethylhexanol

>  <Molecule Name 2>
2-ethylhexanol

>  <Database>
Essential Oil Database

>  <InChI>
InChI=1S/C8H18O/c1-3-5-6-8(4-2)7-9/h8-9H,3-7H2,1-2H3/t8-/m0/s1

>  <InChI-Key>
YIWUKEYIRIRTPP-QMMMGPOBSA-N

>  <Smiles>
CCCCC(CC)CO

>  <Molecular Formula>
C8H18O

$$$$
nonyl hexanoate
Actelion Java MolfileCreator 2.0

  0  0  0  0  0  0              0 V3000
M  V30 BEGIN CTAB
M  V30 COUNTS 17 16 0 0 0
M  V30 BEGIN ATOM
M  V30 1 O 0.0 0.0 0.0 0
M  V30 2 C -0.0466 -1.4684 0.0 0
M  V30 3 O 1.2237 -2.156 0.0 0
M  V30 4 C -1.4102 -2.156 0.0 0
M  V30 5 C 2.494 -1.3402 0.0 0
M  V30 6 C -2.7737 -1.3402 0.0 0
M  V30 7 C 3.7644 -2.0278 0.0 0
M  V30 8 C -4.1373 -2.0278 0.0 0
M  V30 9 C 5.0347 -1.212 0.0 0
M  V30 10 C -5.5009 -1.212 0.0 0
M  V30 11 C 6.3051 -1.8996 0.0 0
M  V30 12 C -6.8645 -1.8996 0.0 0
M  V30 13 C 7.5754 -1.0838 0.0 0
M  V30 14 C 8.8458 -1.7714 0.0 0
M  V30 15 C 10.1161 -0.9556 0.0 0
M  V30 16 C 11.3865 -1.6432 0.0 0
M  V30 17 C 12.6568 -0.8274 0.0 0
M  V30 END ATOM
M  V30 BEGIN BOND
M  V30 1 2 1 2
M  V30 2 1 2 3
M  V30 3 1 2 4
M  V30 4 1 3 5
M  V30 5 1 4 6
M  V30 6 1 5 7
M  V30 7 1 6 8
M  V30 8 1 7 9
M  V30 9 1 8 10
M  V30 10 1 9 11
M  V30 11 1 10 12
M  V30 12 1 11 13
M  V30 13 1 13 14
M  V30 14 1 14 15
M  V30 15 1 15 16
M  V30 16 1 16 17
M  V30 END BOND
M  V30 END CTAB
M  END
>  <Molecule Name>
nonyl hexanoate

>  <Molecule Name 2>
nonyl hexanoate

>  <Database>
Essential Oil Database

>  <InChI>
InChI=1S/C15H30O2/c1-3-5-7-8-9-10-12-14-17-15(16)13-11-6-4-2/h3-14H2,1-2H3

>  <InChI-Key>
UQLYLJOCUOEHOM-UHFFFAOYSA-N

>  <Smiles>
CCCCCCCCCOC(CCCCC)=O

>  <Molecular Formula>
C15H30O2

$$$$
octyl heptanoate
Actelion Java MolfileCreator 2.0

  0  0  0  0  0  0              0 V3000
M  V30 BEGIN CTAB
M  V30 COUNTS 17 16 0 0 0
M  V30 BEGIN ATOM
M  V30 1 O 0.0 0.0 0.0 0
M  V30 2 C -0.0485 1.5524 0.0 0
M  V30 3 O 1.2007 2.3408 0.0 0
M  V30 4 C -1.3947 2.3408 0.0 0
M  V30 5 C 2.4499 1.613 0.0 0
M  V30 6 C -2.741 1.613 0.0 0
M  V30 7 C 3.6991 2.4014 0.0 0
M  V30 8 C -4.0873 2.4014 0.0 0
M  V30 9 C 4.9484 1.6737 0.0 0
M  V30 10 C -5.4335 1.6737 0.0 0
M  V30 11 C 6.1976 2.462 0.0 0
M  V30 12 C -6.7798 2.462 0.0 0
M  V30 13 C 7.4469 1.7343 0.0 0
M  V30 14 C -8.1261 1.7343 0.0 0
M  V30 15 C 8.6961 2.5227 0.0 0
M  V30 16 C 9.9453 1.795 0.0 0
M  V30 17 C 11.1946 2.5955 0.0 0
M  V30 END ATOM
M  V30 BEGIN BOND
M  V30 1 2 1 2
M  V30 2 1 2 3
M  V30 3 1 2 4
M  V30 4 1 3 5
M  V30 5 1 4 6
M  V30 6 1 5 7
M  V30 7 1 6 8
M  V30 8 1 7 9
M  V30 9 1 8 10
M  V30 10 1 9 11
M  V30 11 1 10 12
M  V30 12 1 11 13
M  V30 13 1 12 14
M  V30 14 1 13 15
M  V30 15 1 15 16
M  V30 16 1 16 17
M  V30 END BOND
M  V30 END CTAB
M  END
>  <Molecule Name>
octyl heptanoate

>  <Molecule Name 2>
octyl heptanoate

>  <Database>
Essential Oil Database

>  <InChI>
InChI=1S/C15H30O2/c1-3-5-7-9-10-12-14-17-15(16)13-11-8-6-4-2/h3-14H2,1-2H3

>  <InChI-Key>
XAZROQGRFWCMBU-UHFFFAOYSA-N

>  <Smiles>
CCCCCCCCOC(CCCCCC)=O

>  <Molecular Formula>
C15H30O2

$$$$
4-methoxyacetophenone
Actelion Java MolfileCreator 2.0

  0  0  0  0  0  0              0 V3000
M  V30 BEGIN CTAB
M  V30 COUNTS 11 11 0 0 0
M  V30 BEGIN ATOM
M  V30 1 O 0.0 0.0 0.0 0
M  V30 2 C -1.373 -0.6923 0.0 0
M  V30 3 C -1.4199 -2.171 0.0 0
M  V30 4 C -2.746 0.129 0.0 0
M  V30 5 C -0.1408 -2.8634 0.0 0
M  V30 6 C -2.793 -2.8634 0.0 0
M  V30 7 C -0.1877 -4.342 0.0 0
M  V30 8 C -2.8399 -4.342 0.0 0
M  V30 9 C -1.5608 -5.0344 0.0 0
M  V30 10 O -1.6077 -6.5131 0.0 0
M  V30 11 C -0.3285 -7.2172 0.0 0
M  V30 END ATOM
M  V30 BEGIN BOND
M  V30 1 2 1 2
M  V30 2 1 2 3
M  V30 3 1 2 4
M  V30 4 2 3 5
M  V30 5 1 3 6
M  V30 6 1 5 7
M  V30 7 2 6 8
M  V30 8 2 7 9
M  V30 9 1 9 10
M  V30 10 1 10 11
M  V30 11 1 8 9
M  V30 END BOND
M  V30 END CTAB
M  END
>  <Molecule Name>
4-methoxyacetophenone

>  <Molecule Name 2>
4-methoxyacetophenone

>  <Database>
Essential Oil Database

>  <InChI>
InChI=1S/C9H10O2/c1-7(10)8-3-5-9(11-2)6-4-8/h3-6H,1-2H3

>  <InChI-Key>
NTPLXRHDUXRPNE-UHFFFAOYSA-N

>  <Smiles>
CC(c(cc1)ccc1OC)=O

>  <Molecular Formula>
C9H10O2

$$$$
eicosane
Actelion Java MolfileCreator 2.0

  0  0  0  0  0  0              0 V3000
M  V30 BEGIN CTAB
M  V30 COUNTS 20 19 0 0 0
M  V30 BEGIN ATOM
M  V30 1 C 0.0 0.0 0.0 0
M  V30 2 C 1.2661 -0.6963 0.0 0
M  V30 3 C -1.3505 -0.6963 0.0 0
M  V30 4 C 2.5322 0.0844 0.0 0
M  V30 5 C -2.701 0.0844 0.0 0
M  V30 6 C 3.7983 -0.6119 0.0 0
M  V30 7 C -4.0516 -0.6119 0.0 0
M  V30 8 C 5.0645 0.1688 0.0 0
M  V30 9 C -5.4021 0.1688 0.0 0
M  V30 10 C 6.3306 -0.5275 0.0 0
M  V30 11 C -6.7526 -0.5275 0.0 0
M  V30 12 C 7.5967 0.2532 0.0 0
M  V30 13 C -8.1032 0.2532 0.0 0
M  V30 14 C 8.8628 -0.4431 0.0 0
M  V30 15 C -9.4537 -0.4431 0.0 0
M  V30 16 C 10.129 0.3376 0.0 0
M  V30 17 C -10.8042 0.3376 0.0 0
M  V30 18 C 11.3951 -0.3587 0.0 0
M  V30 19 C -12.1548 -0.3587 0.0 0
M  V30 20 C 12.6612 0.422 0.0 0
M  V30 END ATOM
M  V30 BEGIN BOND
M  V30 1 1 1 2
M  V30 2 1 1 3
M  V30 3 1 2 4
M  V30 4 1 3 5
M  V30 5 1 4 6
M  V30 6 1 5 7
M  V30 7 1 6 8
M  V30 8 1 7 9
M  V30 9 1 8 10
M  V30 10 1 9 11
M  V30 11 1 10 12
M  V30 12 1 11 13
M  V30 13 1 12 14
M  V30 14 1 13 15
M  V30 15 1 14 16
M  V30 16 1 15 17
M  V30 17 1 16 18
M  V30 18 1 17 19
M  V30 19 1 18 20
M  V30 END BOND
M  V30 END CTAB
M  END
>  <Molecule Name>
eicosane

>  <Molecule Name 2>
eicosane

>  <Database>
Essential Oil Database

>  <InChI>
InChI=1S/C20H42/c1-3-5-7-9-11-13-15-17-19-20-18-16-14-12-10-8-6-4-2/h3-20H2,1-2H3

>  <InChI-Key>
CBFCDTFDPHXCNY-UHFFFAOYSA-N

>  <Smiles>
CCCCCCCCCCCCCCCCCCCC

>  <Molecular Formula>
C20H42

$$$$
cnidilide
Actelion Java MolfileCreator 2.0

  0  0  0  0  0  0              0 V3000
M  V30 BEGIN CTAB
M  V30 COUNTS 14 15 0 0 0
M  V30 BEGIN ATOM
M  V30 1 O 0.0 0.0 0.0 0
M  V30 2 C 0.4207 -1.4063 0.0 0
M  V30 3 O -0.5288 -2.5963 0.0 0
M  V30 4 C 1.827 -1.827 0.0 0 CFG=2
M  V30 5 C 0.3245 -3.7863 0.0 0 CFG=2
M  V30 6 C 3.1011 -1.0096 0.0 0
M  V30 7 C 1.7789 -3.3055 0.0 0 CFG=1
M  V30 8 C -0.1923 -5.1926 0.0 0
M  V30 9 C 4.3752 -1.7308 0.0 0
M  V30 10 C 3.053 -4.0387 0.0 0
M  V30 11 C -1.7308 -5.457 0.0 0
M  V30 12 C 4.3272 -3.2093 0.0 0
M  V30 13 C -2.2477 -6.8634 0.0 0
M  V30 14 C -3.7863 -7.1278 0.0 0
M  V30 END ATOM
M  V30 BEGIN BOND
M  V30 1 2 1 2
M  V30 2 1 2 3
M  V30 3 1 2 4
M  V30 4 1 3 5
M  V30 5 1 4 6 CFG=3
M  V30 6 1 4 7
M  V30 7 1 5 8 CFG=3
M  V30 8 2 6 9
M  V30 9 1 7 10 CFG=3
M  V30 10 1 8 11
M  V30 11 1 9 12
M  V30 12 1 11 13
M  V30 13 1 13 14
M  V30 14 1 5 7
M  V30 15 1 10 12
M  V30 END BOND
M  V30 BEGIN COLLECTION
M  V30 MDLV30/STEABS ATOMS=(3 4 5 7)
M  V30 END COLLECTION
M  V30 END CTAB
M  END
>  <Molecule Name>
cnidilide

>  <Molecule Name 2>
cnidilide

>  <Database>
Essential Oil Database

>  <InChI>
InChI=1S/C12H18O2/c1-2-3-8-11-9-6-4-5-7-10(9)12(13)14-11/h5,7,9-11H,2-4,6,8H2,1H3/t9-,10+,11-/m0/s1

>  <InChI-Key>
UXDIXFDKSPCUIX-AXFHLTTASA-N

>  <Smiles>
CCCC[C@@H]([C@@H]1[C@H]2C=CCC1)OC2=O

>  <Molecular Formula>
C12H18O2

$$$$
p-mentha-1(7),8-diene
Actelion Java MolfileCreator 2.0

  0  0  0  0  0  0              0 V3000
M  V30 BEGIN CTAB
M  V30 COUNTS 10 10 0 0 0
M  V30 BEGIN ATOM
M  V30 1 C 0.0 0.0 0.0 0
M  V30 2 C -0.049 1.5706 0.0 0
M  V30 3 C 1.2638 -0.7239 0.0 0
M  V30 4 C -1.362 -0.7239 0.0 0
M  V30 5 C 1.2147 -2.1963 0.0 0
M  V30 6 C -1.411 -2.1963 0.0 0
M  V30 7 C -0.1472 -2.9203 0.0 0
M  V30 8 C -0.1963 -4.3927 0.0 0
M  V30 9 C 1.0675 -5.129 0.0 0
M  V30 10 C -1.5583 -5.129 0.0 0
M  V30 END ATOM
M  V30 BEGIN BOND
M  V30 1 2 1 2
M  V30 2 1 1 3
M  V30 3 1 1 4
M  V30 4 1 3 5
M  V30 5 1 4 6
M  V30 6 1 5 7
M  V30 7 1 7 8
M  V30 8 2 8 9
M  V30 9 1 8 10
M  V30 10 1 6 7
M  V30 END BOND
M  V30 END CTAB
M  END
>  <Molecule Name>
p-mentha-1(7),8-diene

>  <Molecule Name 2>
p-mentha-1(7),8-diene

>  <Database>
Essential Oil Database

>  <InChI>
InChI=1S/C10H16/c1-8(2)10-6-4-9(3)5-7-10/h10H,1,3-7H2,2H3

>  <InChI-Key>
GOQRXDTWKVYHJH-UHFFFAOYSA-N

>  <Smiles>
CC(C(CC1)CCC1=C)=C

>  <Molecular Formula>
C10H16

$$$$
tetradecyl acetate
Actelion Java MolfileCreator 2.0

  0  0  0  0  0  0              0 V3000
M  V30 BEGIN CTAB
M  V30 COUNTS 18 17 0 0 0
M  V30 BEGIN ATOM
M  V30 1 O 0.0 0.0 0.0 0
M  V30 2 C 1.2894 -0.7097 0.0 0
M  V30 3 O 2.5788 0.1064 0.0 0
M  V30 4 C 1.242 -2.2002 0.0 0
M  V30 5 C 3.8682 -0.6033 0.0 0
M  V30 6 C 5.1576 0.2129 0.0 0
M  V30 7 C 6.447 -0.4968 0.0 0
M  V30 8 C 7.7364 0.3193 0.0 0
M  V30 9 C 9.0259 -0.3903 0.0 0
M  V30 10 C 10.3153 0.4258 0.0 0
M  V30 11 C 11.6047 -0.2839 0.0 0
M  V30 12 C 12.8941 0.5441 0.0 0
M  V30 13 C 14.1835 -0.1656 0.0 0
M  V30 14 C 15.4729 0.6624 0.0 0
M  V30 15 C 16.7624 -0.0473 0.0 0
M  V30 16 C 18.0518 0.7807 0.0 0
M  V30 17 C 19.3412 0.0709 0.0 0
M  V30 18 C 20.6306 0.899 0.0 0
M  V30 END ATOM
M  V30 BEGIN BOND
M  V30 1 2 1 2
M  V30 2 1 2 3
M  V30 3 1 2 4
M  V30 4 1 3 5
M  V30 5 1 5 6
M  V30 6 1 6 7
M  V30 7 1 7 8
M  V30 8 1 8 9
M  V30 9 1 9 10
M  V30 10 1 10 11
M  V30 11 1 11 12
M  V30 12 1 12 13
M  V30 13 1 13 14
M  V30 14 1 14 15
M  V30 15 1 15 16
M  V30 16 1 16 17
M  V30 17 1 17 18
M  V30 END BOND
M  V30 END CTAB
M  END
>  <Molecule Name>
tetradecyl acetate

>  <Molecule Name 2>
tetradecyl acetate

>  <Database>
Essential Oil Database

>  <InChI>
InChI=1S/C16H32O2/c1-3-4-5-6-7-8-9-10-11-12-13-14-15-18-16(2)17/h3-15H2,1-2H3

>  <InChI-Key>
IOUUIFSIQMVYKP-UHFFFAOYSA-N

>  <Smiles>
CCCCCCCCCCCCCCOC(C)=O

>  <Molecular Formula>
C16H32O2

$$$$
perillaldehyde
Actelion Java MolfileCreator 2.0

  0  0  0  0  0  0              0 V3000
M  V30 BEGIN CTAB
M  V30 COUNTS 11 11 0 0 0
M  V30 BEGIN ATOM
M  V30 1 O 0.0 0.0 0.0 0
M  V30 2 C -1.318 0.7599 0.0 0
M  V30 3 C -1.3655 2.2798 0.0 0
M  V30 4 C -2.6835 3.0397 0.0 0
M  V30 5 C -0.1424 3.0397 0.0 0
M  V30 6 C -2.731 4.5596 0.0 0
M  V30 7 C -0.1899 4.5596 0.0 0
M  V30 8 C -1.5079 5.3314 0.0 0 CFG=2
M  V30 9 C -1.5554 6.8512 0.0 0
M  V30 10 C -0.3324 7.6112 0.0 0
M  V30 11 C -2.8735 7.6112 0.0 0
M  V30 END ATOM
M  V30 BEGIN BOND
M  V30 1 2 1 2
M  V30 2 1 2 3
M  V30 3 2 3 4
M  V30 4 1 3 5
M  V30 5 1 4 6
M  V30 6 1 5 7
M  V30 7 1 6 8
M  V30 8 1 8 9 CFG=1
M  V30 9 2 9 10
M  V30 10 1 9 11
M  V30 11 1 7 8
M  V30 END BOND
M  V30 BEGIN COLLECTION
M  V30 MDLV30/STERAC1 ATOMS=(1 8)
M  V30 END COLLECTION
M  V30 END CTAB
M  END
>  <Molecule Name>
perillaldehyde

>  <Molecule Name 2>
perillaldehyde

>  <Database>
Essential Oil Database

>  <InChI>
InChI=1S/C10H14O/c1-8(2)10-5-3-9(7-11)4-6-10/h3,7,10H,1,4-6H2,2H3/t10-/m1/s1

>  <InChI-Key>
RUMOYJJNUMEFDD-SNVBAGLBSA-N

>  <Smiles>
CC(C(CC1)CC=C1C=O)=C

>  <Molecular Formula>
C10H14O

$$$$
geranyl formate
Actelion Java MolfileCreator 2.0

  0  0  0  0  0  0              0 V3000
M  V30 BEGIN CTAB
M  V30 COUNTS 13 12 0 0 0
M  V30 BEGIN ATOM
M  V30 1 O 0.0 0.0 0.0 0
M  V30 2 C -1.5319 0.0478 0.0 0
M  V30 3 O -2.2979 -1.1849 0.0 0
M  V30 4 C -3.8299 -1.137 0.0 0
M  V30 5 C -4.5959 -2.3698 0.0 0
M  V30 6 C -6.1279 -2.3219 0.0 0
M  V30 7 C -6.8939 -3.5547 0.0 0
M  V30 8 C -6.8939 -0.9934 0.0 0
M  V30 9 C -8.4259 -3.5068 0.0 0
M  V30 10 C -9.1919 -4.7396 0.0 0
M  V30 11 C -10.7239 -4.6917 0.0 0
M  V30 12 C -11.5019 -5.9245 0.0 0
M  V30 13 C -11.5019 -3.3632 0.0 0
M  V30 END ATOM
M  V30 BEGIN BOND
M  V30 1 2 1 2
M  V30 2 1 2 3
M  V30 3 1 3 4
M  V30 4 1 4 5
M  V30 5 2 5 6
M  V30 6 1 6 7
M  V30 7 1 6 8
M  V30 8 1 7 9
M  V30 9 1 9 10
M  V30 10 2 10 11
M  V30 11 1 11 12
M  V30 12 1 11 13
M  V30 END BOND
M  V30 END CTAB
M  END
>  <Molecule Name>
geranyl formate

>  <Molecule Name 2>
geranyl formate

>  <Database>
Essential Oil Database

>  <InChI>
InChI=1S/C11H18O2/c1-10(2)5-4-6-11(3)7-8-13-9-12/h5,7,9H,4,6,8H2,1-3H3/b11-7+

>  <InChI-Key>
FQMZVFJYMPNUCT-YRNVUSSQSA-N

>  <Smiles>
CC(C)=CCC/C(\C)=C/COC=O

>  <Molecular Formula>
C11H18O2

$$$$
(e)-4-decenal
Actelion Java MolfileCreator 2.0

  0  0  0  0  0  0              0 V3000
M  V30 BEGIN CTAB
M  V30 COUNTS 11 10 0 0 0
M  V30 BEGIN ATOM
M  V30 1 O 0.0 0.0 0.0 0
M  V30 2 C -0.0491 1.5722 0.0 0
M  V30 3 C 1.216 2.3706 0.0 0
M  V30 4 C 1.1668 3.9428 0.0 0
M  V30 5 C 2.432 4.7412 0.0 0
M  V30 6 C 3.6971 4.0165 0.0 0
M  V30 7 C 4.9623 4.8149 0.0 0
M  V30 8 C 6.2274 4.0902 0.0 0
M  V30 9 C 7.4926 4.8886 0.0 0
M  V30 10 C 8.7577 4.1639 0.0 0
M  V30 11 C 10.0229 4.9623 0.0 0
M  V30 END ATOM
M  V30 BEGIN BOND
M  V30 1 2 1 2
M  V30 2 1 2 3
M  V30 3 1 3 4
M  V30 4 1 4 5
M  V30 5 2 5 6
M  V30 6 1 6 7
M  V30 7 1 7 8
M  V30 8 1 8 9
M  V30 9 1 9 10
M  V30 10 1 10 11
M  V30 END BOND
M  V30 END CTAB
M  END
>  <Molecule Name>
(e)-4-decenal

>  <Molecule Name 2>
(e)-4-decenal

>  <Database>
Essential Oil Database

>  <InChI>
InChI=1S/C10H18O/c1-2-3-4-5-6-7-8-9-10-11/h6-7,10H,2-5,8-9H2,1H3/b7-6+

>  <InChI-Key>
CWRKZMLUDFBPAO-VOTSOKGWSA-N

>  <Smiles>
CCCCC/C=C/CCC=O

>  <Molecular Formula>
C10H18O

$$$$
(e)-3-hexenyl acetate
Actelion Java MolfileCreator 2.0

  0  0  0  0  0  0              0 V3000
M  V30 BEGIN CTAB
M  V30 COUNTS 10 9 0 0 0
M  V30 BEGIN ATOM
M  V30 1 O 0.0 0.0 0.0 0
M  V30 2 C 1.2659 0.7866 0.0 0
M  V30 3 O 2.5319 0.0614 0.0 0
M  V30 4 C 1.2168 2.3599 0.0 0
M  V30 5 C 3.7979 0.848 0.0 0
M  V30 6 C 5.0639 0.1229 0.0 0
M  V30 7 C 6.3299 0.9218 0.0 0
M  V30 8 C 7.5959 0.1966 0.0 0
M  V30 9 C 8.8619 0.9955 0.0 0
M  V30 10 C 8.8127 2.5688 0.0 0
M  V30 END ATOM
M  V30 BEGIN BOND
M  V30 1 2 1 2
M  V30 2 1 2 3
M  V30 3 1 2 4
M  V30 4 1 3 5
M  V30 5 1 5 6
M  V30 6 1 6 7
M  V30 7 2 7 8
M  V30 8 1 8 9
M  V30 9 1 9 10
M  V30 END BOND
M  V30 END CTAB
M  END
>  <Molecule Name>
(e)-3-hexenyl acetate

>  <Molecule Name 2>
(e)-3-hexenyl acetate

>  <Database>
Essential Oil Database

>  <InChI>
InChI=1S/C8H14O2/c1-3-4-5-6-7-10-8(2)9/h4-5H,3,6-7H2,1-2H3/b5-4+

>  <InChI-Key>
NPFVOOAXDOBMCE-SNAWJCMRSA-N

>  <Smiles>
CC/C=C/CCOC(C)=O

>  <Molecular Formula>
C8H14O2

$$$$
1-octenyl acetate
Actelion Java MolfileCreator 2.0

  0  0  0  0  0  0              0 V3000
M  V30 BEGIN CTAB
M  V30 COUNTS 12 11 0 0 0
M  V30 BEGIN ATOM
M  V30 1 O 0.0 0.0 0.0 0
M  V30 2 C 1.2878 -0.7207 0.0 0
M  V30 3 O 1.2405 -2.2094 0.0 0
M  V30 4 C 2.5756 0.1181 0.0 0
M  V30 5 C 2.5284 -2.9301 0.0 0
M  V30 6 C 2.4811 -4.4188 0.0 0
M  V30 7 C 3.769 -5.1395 0.0 0
M  V30 8 C 5.0568 -4.3006 0.0 0
M  V30 9 C 6.3447 -5.0095 0.0 0
M  V30 10 C 7.6325 -4.1707 0.0 0
M  V30 11 C 8.9203 -4.8914 0.0 0
M  V30 12 C 10.2082 -4.0525 0.0 0
M  V30 END ATOM
M  V30 BEGIN BOND
M  V30 1 2 1 2
M  V30 2 1 2 3
M  V30 3 1 2 4
M  V30 4 1 3 5
M  V30 5 2 5 6 CFG=2
M  V30 6 1 6 7
M  V30 7 1 7 8
M  V30 8 1 8 9
M  V30 9 1 9 10
M  V30 10 1 10 11
M  V30 11 1 11 12
M  V30 END BOND
M  V30 END CTAB
M  END
>  <Molecule Name>
1-octenyl acetate

>  <Molecule Name 2>
1-octenyl acetate

>  <Database>
Essential Oil Database

>  <InChI>
InChI=1S/C10H18O2/c1-3-4-5-6-7-8-9-12-10(2)11/h8-9H,3-7H2,1-2H3

>  <InChI-Key>
BQZSFXARLMHSGX-UHFFFAOYSA-N

>  <Smiles>
CCCCCCC=COC(C)=O

>  <Molecular Formula>
C10H18O2

$$$$
3,7-dimethyl-1,5-octadien-3,7-diol
Actelion Java MolfileCreator 2.0

  0  0  0  0  0  0              0 V3000
M  V30 BEGIN CTAB
M  V30 COUNTS 12 11 0 0 0
M  V30 BEGIN ATOM
M  V30 1 O 0.0 0.0 0.0 0
M  V30 2 C -0.0487 -1.4615 0.0 0 CFG=2
M  V30 3 C 1.4128 -1.4128 0.0 0
M  V30 4 C -1.6076 -1.4128 0.0 0
M  V30 5 C -0.0974 -2.923 0.0 0
M  V30 6 C 2.1313 -0.0608 0.0 0
M  V30 7 C -2.3993 -2.6672 0.0 0
M  V30 8 C -3.9583 -2.6185 0.0 0
M  V30 9 C -4.7499 -3.873 0.0 0
M  V30 10 O -6.1018 -3.0813 0.0 0
M  V30 11 C -5.5416 -5.1275 0.0 0
M  V30 12 C -3.4954 -4.5916 0.0 0
M  V30 END ATOM
M  V30 BEGIN BOND
M  V30 1 1 1 2
M  V30 2 1 2 3 CFG=3
M  V30 3 1 2 4
M  V30 4 1 2 5
M  V30 5 2 3 6
M  V30 6 1 4 7
M  V30 7 2 7 8 CFG=2
M  V30 8 1 8 9
M  V30 9 1 9 10
M  V30 10 1 9 11
M  V30 11 1 9 12
M  V30 END BOND
M  V30 BEGIN COLLECTION
M  V30 MDLV30/STERAC1 ATOMS=(1 2)
M  V30 END COLLECTION
M  V30 END CTAB
M  END
>  <Molecule Name>
3,7-dimethyl-1,5-octadien-3,7-diol

>  <Molecule Name 2>
3,7-dimethyl-1,5-octadien-3,7-diol

>  <Database>
Essential Oil Database

>  <InChI>
InChI=1S/C10H18O2/c1-5-10(4,12)8-6-7-9(2,3)11/h5-7,11-12H,1,8H2,2-4H3/t10-/m1/s1

>  <InChI-Key>
QEOHJVNDENHRCH-SNVBAGLBSA-N

>  <Smiles>
CC(C)(C=CCC(C)(C=C)O)O

>  <Molecular Formula>
C10H18O2

$$$$
3-hexanone
Actelion Java MolfileCreator 2.0

  0  0  0  0  0  0              0 V3000
M  V30 BEGIN CTAB
M  V30 COUNTS 7 6 0 0 0
M  V30 BEGIN ATOM
M  V30 1 O 0.0 0.0 0.0 0
M  V30 2 C -0.0482 1.5447 0.0 0
M  V30 3 C 1.1947 2.3413 0.0 0
M  V30 4 C -1.3878 2.3413 0.0 0
M  V30 5 C 2.4378 1.6292 0.0 0
M  V30 6 C -2.7275 1.6292 0.0 0
M  V30 7 C 3.6809 2.4137 0.0 0
M  V30 END ATOM
M  V30 BEGIN BOND
M  V30 1 2 1 2
M  V30 2 1 2 3
M  V30 3 1 2 4
M  V30 4 1 3 5
M  V30 5 1 4 6
M  V30 6 1 5 7
M  V30 END BOND
M  V30 END CTAB
M  END
>  <Molecule Name>
3-hexanone

>  <Molecule Name 2>
3-hexanone

>  <Database>
Essential Oil Database

>  <InChI>
InChI=1S/C6H12O/c1-3-5-6(7)4-2/h3-5H2,1-2H3

>  <InChI-Key>
PFCHFHIRKBAQGU-UHFFFAOYSA-N

>  <Smiles>
CCCC(CC)=O

>  <Molecular Formula>
C6H12O

$$$$
3-octanol
Actelion Java MolfileCreator 2.0

  0  0  0  0  0  0              0 V3000
M  V30 BEGIN CTAB
M  V30 COUNTS 9 8 0 0 0
M  V30 BEGIN ATOM
M  V30 1 O 0.0 0.0 0.0 0
M  V30 2 C -0.0486 1.5567 0.0 0 CFG=2
M  V30 3 C 1.204 2.3473 0.0 0
M  V30 4 C -1.3986 2.3473 0.0 0
M  V30 5 C 2.4567 1.6175 0.0 0
M  V30 6 C -2.7486 1.6175 0.0 0
M  V30 7 C 3.7094 2.4081 0.0 0
M  V30 8 C 4.9621 1.6783 0.0 0
M  V30 9 C 6.2149 2.4689 0.0 0
M  V30 END ATOM
M  V30 BEGIN BOND
M  V30 1 1 2 1 CFG=1
M  V30 2 1 2 3
M  V30 3 1 2 4
M  V30 4 1 3 5
M  V30 5 1 4 6
M  V30 6 1 5 7
M  V30 7 1 7 8
M  V30 8 1 8 9
M  V30 END BOND
M  V30 BEGIN COLLECTION
M  V30 MDLV30/STERAC1 ATOMS=(1 2)
M  V30 END COLLECTION
M  V30 END CTAB
M  END
>  <Molecule Name>
3-octanol

>  <Molecule Name 2>
3-octanol

>  <Database>
Essential Oil Database

>  <InChI>
InChI=1S/C8H18O/c1-3-5-6-7-8(9)4-2/h8-9H,3-7H2,1-2H3/t8-/m0/s1

>  <InChI-Key>
NMRPBPVERJPACX-QMMMGPOBSA-N

>  <Smiles>
CCCCCC(CC)O

>  <Molecular Formula>
C8H18O

$$$$
3-octyl acetate
Actelion Java MolfileCreator 2.0

  0  0  0  0  0  0              0 V3000
M  V30 BEGIN CTAB
M  V30 COUNTS 12 11 0 0 0
M  V30 BEGIN ATOM
M  V30 1 O 0.0 0.0 0.0 0
M  V30 2 C 1.2827 -0.706 0.0 0
M  V30 3 O 2.5654 0.1294 0.0 0
M  V30 4 C 1.2356 -2.1888 0.0 0
M  V30 5 C 3.8481 -0.5766 0.0 0 CFG=2
M  V30 6 C 5.1308 0.2588 0.0 0
M  V30 7 C 3.801 -2.0594 0.0 0
M  V30 8 C 6.4135 -0.4471 0.0 0
M  V30 9 C 2.4242 -2.7772 0.0 0
M  V30 10 C 7.6962 0.3883 0.0 0
M  V30 11 C 8.979 -0.3177 0.0 0
M  V30 12 C 10.2617 0.5177 0.0 0
M  V30 END ATOM
M  V30 BEGIN BOND
M  V30 1 2 1 2
M  V30 2 1 2 3
M  V30 3 1 2 4
M  V30 4 1 5 3 CFG=3
M  V30 5 1 5 6
M  V30 6 1 5 7
M  V30 7 1 6 8
M  V30 8 1 7 9
M  V30 9 1 8 10
M  V30 10 1 10 11
M  V30 11 1 11 12
M  V30 END BOND
M  V30 BEGIN COLLECTION
M  V30 MDLV30/STERAC1 ATOMS=(1 5)
M  V30 END COLLECTION
M  V30 END CTAB
M  END
>  <Molecule Name>
3-octyl acetate

>  <Molecule Name 2>
3-octyl acetate

>  <Database>
Essential Oil Database

>  <InChI>
InChI=1S/C10H20O2/c1-4-6-7-8-10(5-2)12-9(3)11/h10H,4-8H2,1-3H3/t10-/m0/s1

>  <InChI-Key>
STZUZYMKSMSTOU-JTQLQIEISA-N

>  <Smiles>
CCCCCC(CC)OC(C)=O

>  <Molecular Formula>
C10H20O2

$$$$
cis-linalooloxideacetate
Actelion Java MolfileCreator 2.0

  0  0  0  0  0  0              0 V3000
M  V30 BEGIN CTAB
M  V30 COUNTS 15 14 0 0 0
M  V30 BEGIN ATOM
M  V30 1 O 0.0 0.0 0.0 0
M  V30 2 C 0.7005 -1.2727 0.0 0
M  V30 3 O -0.105 -2.5455 0.0 0 CHG=-1
M  V30 4 C 2.1718 -1.226 0.0 0
M  V30 5 C 2.8607 0.1401 0.0 0
M  V30 6 C 4.332 0.1868 0.0 0
M  V30 7 C 5.0209 1.5529 0.0 0 CFG=1
M  V30 8 O 6.2936 0.8523 0.0 0
M  V30 9 C 5.7215 2.9191 0.0 0
M  V30 10 C 3.6547 2.3703 0.0 0
M  V30 11 C 7.1927 2.9658 0.0 0
M  V30 12 C 7.8933 4.332 0.0 0
M  V30 13 C 9.3646 4.3787 0.0 0
M  V30 14 C 10.0535 5.7448 0.0 0
M  V30 15 C 10.0535 3.1059 0.0 0
M  V30 END ATOM
M  V30 BEGIN BOND
M  V30 1 2 1 2
M  V30 2 1 2 3
M  V30 3 1 2 4
M  V30 4 1 4 5
M  V30 5 2 5 6 CFG=2
M  V30 6 1 6 7
M  V30 7 1 7 8
M  V30 8 1 7 9 CFG=3
M  V30 9 1 7 10
M  V30 10 1 9 11
M  V30 11 1 11 12
M  V30 12 2 12 13
M  V30 13 1 13 14
M  V30 14 1 13 15
M  V30 END BOND
M  V30 BEGIN COLLECTION
M  V30 MDLV30/STERAC1 ATOMS=(1 7)
M  V30 END COLLECTION
M  V30 END CTAB
M  END
>  <Molecule Name>
cis-linalooloxideacetate

>  <Molecule Name 2>
cis-linalooloxideacetate

>  <Database>
Essential Oil Database

>  <InChI>
InChI=1S/C12H20O3/c1-10(2)6-4-8-12(3,15)9-5-7-11(13)14/h5-6,9,15H,4,7-8H2,1-3H3,(H,13,14)/p-1/t12-/m0/s1

>  <InChI-Key>
GMNMBEWIIMFMGC-LBPRGKRZSA-M

>  <Smiles>
CC(CCC=C(C)C)(C=CCC([O-])=O)O

>  <Molecular Formula>
C12H19O3

$$$$
nerol oxide
Actelion Java MolfileCreator 2.0

  0  0  0  0  0  0              0 V3000
M  V30 BEGIN CTAB
M  V30 COUNTS 12 11 0 0 0
M  V30 BEGIN ATOM
M  V30 1 O 0.0 0.0 0.0 0
M  V30 2 C 1.4817 0.0493 0.0 0
M  V30 3 O 2.2102 -1.2224 0.0 0
M  V30 4 C 2.2102 1.4199 0.0 0
M  V30 5 C 3.6919 1.4693 0.0 0
M  V30 6 C 4.4204 0.1975 0.0 0
M  V30 7 C 4.4204 2.8399 0.0 0
M  V30 8 C 5.9022 0.2469 0.0 0
M  V30 9 C 6.6307 -1.0248 0.0 0
M  V30 10 C 5.8281 -2.2966 0.0 0
M  V30 11 C 6.5566 -3.5685 0.0 0
M  V30 12 C 4.2476 -2.2472 0.0 0
M  V30 END ATOM
M  V30 BEGIN BOND
M  V30 1 2 1 2
M  V30 2 1 2 3
M  V30 3 1 2 4
M  V30 4 2 4 5
M  V30 5 1 5 6
M  V30 6 1 5 7
M  V30 7 1 6 8
M  V30 8 1 8 9
M  V30 9 2 9 10
M  V30 10 1 10 11
M  V30 11 1 10 12
M  V30 END BOND
M  V30 END CTAB
M  END
>  <Molecule Name>
nerol oxide

>  <Molecule Name 2>
nerol oxide

>  <Database>
Essential Oil Database

>  <InChI>
InChI=1S/C10H16O2/c1-8(2)5-4-6-9(3)7-10(11)12/h5,7H,4,6H2,1-3H3,(H,11,12)/b9-7-

>  <InChI-Key>
ZHYZQXUYZJNEHD-CLFYSBASSA-N

>  <Smiles>
CC(C)=CCC/C(\C)=C\C(O)=O

>  <Molecular Formula>
C10H16O2

$$$$
octyl decanoate
Actelion Java MolfileCreator 2.0

  0  0  0  0  0  0              0 V3000
M  V30 BEGIN CTAB
M  V30 COUNTS 20 19 0 0 0
M  V30 BEGIN ATOM
M  V30 1 O 0.0 0.0 0.0 0
M  V30 2 C -0.0482 1.5446 0.0 0
M  V30 3 O 1.1946 2.329 0.0 0
M  V30 4 C -1.3877 2.329 0.0 0
M  V30 5 C 2.4376 1.6049 0.0 0
M  V30 6 C -2.7272 1.6049 0.0 0
M  V30 7 C 3.6805 2.3893 0.0 0
M  V30 8 C -4.0667 2.3893 0.0 0
M  V30 9 C 4.9235 1.6653 0.0 0
M  V30 10 C -5.4062 1.6653 0.0 0
M  V30 11 C 6.1664 2.4497 0.0 0
M  V30 12 C -6.7457 2.4497 0.0 0
M  V30 13 C 7.4094 1.7256 0.0 0
M  V30 14 C -8.0852 1.7256 0.0 0
M  V30 15 C 8.6524 2.51 0.0 0
M  V30 16 C -9.4247 2.51 0.0 0
M  V30 17 C 9.8953 1.7859 0.0 0
M  V30 18 C -10.7642 1.7859 0.0 0
M  V30 19 C 11.1383 2.5703 0.0 0
M  V30 20 C -12.1037 2.5703 0.0 0
M  V30 END ATOM
M  V30 BEGIN BOND
M  V30 1 2 1 2
M  V30 2 1 2 3
M  V30 3 1 2 4
M  V30 4 1 3 5
M  V30 5 1 4 6
M  V30 6 1 5 7
M  V30 7 1 6 8
M  V30 8 1 7 9
M  V30 9 1 8 10
M  V30 10 1 9 11
M  V30 11 1 10 12
M  V30 12 1 11 13
M  V30 13 1 12 14
M  V30 14 1 13 15
M  V30 15 1 14 16
M  V30 16 1 15 17
M  V30 17 1 16 18
M  V30 18 1 17 19
M  V30 19 1 18 20
M  V30 END BOND
M  V30 END CTAB
M  END
>  <Molecule Name>
octyl decanoate

>  <Molecule Name 2>
octyl decanoate

>  <Database>
Essential Oil Database

>  <InChI>
InChI=1S/C18H36O2/c1-3-5-7-9-11-12-14-16-18(19)20-17-15-13-10-8-6-4-2/h3-17H2,1-2H3

>  <InChI-Key>
HRPZGPXWSVHWPB-UHFFFAOYSA-N

>  <Smiles>
CCCCCCCCCC(OCCCCCCCC)=O

>  <Molecular Formula>
C18H36O2

$$$$
pentanal
Actelion Java MolfileCreator 2.0

  0  0  0  0  0  0              0 V3000
M  V30 BEGIN CTAB
M  V30 COUNTS 6 5 0 0 0
M  V30 BEGIN ATOM
M  V30 1 O 0.0 0.0 0.0 0
M  V30 2 C 1.2804 0.813 0.0 0
M  V30 3 C 2.5609 0.0813 0.0 0
M  V30 4 C 3.8414 0.8943 0.0 0
M  V30 5 C 5.1219 0.1626 0.0 0
M  V30 6 C 6.4024 0.9756 0.0 0
M  V30 END ATOM
M  V30 BEGIN BOND
M  V30 1 2 1 2
M  V30 2 1 2 3
M  V30 3 1 3 4
M  V30 4 1 4 5
M  V30 5 1 5 6
M  V30 END BOND
M  V30 END CTAB
M  END
>  <Molecule Name>
pentanal

>  <Molecule Name 2>
pentanal

>  <Database>
Essential Oil Database

>  <InChI>
InChI=1S/C5H10O/c1-2-3-4-5-6/h5H,2-4H2,1H3

>  <InChI-Key>
HGBOYTHUEUWSSQ-UHFFFAOYSA-N

>  <Smiles>
CCCCC=O

>  <Molecular Formula>
C5H10O

$$$$
(z)-3-hexenal
Actelion Java MolfileCreator 2.0

  0  0  0  0  0  0              0 V3000
M  V30 BEGIN CTAB
M  V30 COUNTS 7 6 0 0 0
M  V30 BEGIN ATOM
M  V30 1 O 0.0 0.0 0.0 0
M  V30 2 C -0.7575 1.3138 0.0 0
M  V30 3 C -0.0591 2.6276 0.0 0
M  V30 4 C -0.8285 3.9414 0.0 0
M  V30 5 C -2.3435 3.9887 0.0 0
M  V30 6 C -3.1128 2.7696 0.0 0
M  V30 7 C -4.6279 2.8169 0.0 0
M  V30 END ATOM
M  V30 BEGIN BOND
M  V30 1 2 1 2
M  V30 2 1 2 3
M  V30 3 1 3 4
M  V30 4 2 4 5
M  V30 5 1 5 6
M  V30 6 1 6 7
M  V30 END BOND
M  V30 END CTAB
M  END
>  <Molecule Name>
(z)-3-hexenal

>  <Molecule Name 2>
(z)-3-hexenal

>  <Database>
Essential Oil Database

>  <InChI>
InChI=1S/C6H10O/c1-2-3-4-5-6-7/h3-4,6H,2,5H2,1H3/b4-3-

>  <InChI-Key>
GXANMBISFKBPEX-ARJAWSKDSA-N

>  <Smiles>
CC/C=C\CC=O

>  <Molecular Formula>
C6H10O

$$$$
3,4-dimethyl-5-pentylidene-2(5h)-furanone
Actelion Java MolfileCreator 2.0

  0  0  0  0  0  0              0 V3000
M  V30 BEGIN CTAB
M  V30 COUNTS 13 13 0 0 0
M  V30 BEGIN ATOM
M  V30 1 O 0.0 0.0 0.0 0
M  V30 2 C -0.8947 1.2244 0.0 0
M  V30 3 O -0.4827 2.6607 0.0 0
M  V30 4 C -2.4017 1.2715 0.0 0
M  V30 5 C -1.7071 3.5555 0.0 0
M  V30 6 C -2.908 2.7078 0.0 0
M  V30 7 C -3.2965 0.1412 0.0 0
M  V30 8 C -1.7542 5.0625 0.0 0
M  V30 9 C -4.3443 3.2141 0.0 0
M  V30 10 C -3.061 5.8277 0.0 0
M  V30 11 C -4.3678 5.1213 0.0 0
M  V30 12 C -5.6747 5.8866 0.0 0
M  V30 13 C -6.9815 5.1802 0.0 0
M  V30 END ATOM
M  V30 BEGIN BOND
M  V30 1 2 1 2
M  V30 2 1 2 3
M  V30 3 1 2 4
M  V30 4 1 3 5
M  V30 5 2 4 6
M  V30 6 1 4 7
M  V30 7 2 5 8 CFG=2
M  V30 8 1 6 9
M  V30 9 1 8 10
M  V30 10 1 10 11
M  V30 11 1 11 12
M  V30 12 1 12 13
M  V30 13 1 5 6
M  V30 END BOND
M  V30 END CTAB
M  END
>  <Molecule Name>
3,4-dimethyl-5-pentylidene-2(5h)-furanone

>  <Molecule Name 2>
3,4-dimethyl-5-pentylidene-2(5h)-furanone

>  <Database>
Essential Oil Database

>  <InChI>
InChI=1S/C11H16O2/c1-4-5-6-7-10-8(2)9(3)11(12)13-10/h7H,4-6H2,1-3H3

>  <InChI-Key>
MTQPZHNZYWAXEH-UHFFFAOYSA-N

>  <Smiles>
CCCCC=C(C(C)=C1C)OC1=O

>  <Molecular Formula>
C11H16O2

$$$$
2,6-dimethyl-1,3(e),5(z),7-octatetraene
Actelion Java MolfileCreator 2.0

  0  0  0  0  0  0              0 V3000
M  V30 BEGIN CTAB
M  V30 COUNTS 10 9 0 0 0
M  V30 BEGIN ATOM
M  V30 1 C 0.0 0.0 0.0 0
M  V30 2 C 1.485 0.0471 0.0 0
M  V30 3 C -0.825 -1.2846 0.0 0
M  V30 4 C -0.825 1.3789 0.0 0
M  V30 5 C 2.1803 -1.2375 0.0 0
M  V30 6 C -0.1296 -2.5693 0.0 0
M  V30 7 C 3.6653 -1.1903 0.0 0
M  V30 8 C 4.3607 -2.475 0.0 0
M  V30 9 C 5.8457 -2.4278 0.0 0
M  V30 10 C 3.5357 -3.7596 0.0 0
M  V30 END ATOM
M  V30 BEGIN BOND
M  V30 1 2 1 2
M  V30 2 1 1 3
M  V30 3 1 1 4
M  V30 4 1 2 5
M  V30 5 2 3 6
M  V30 6 2 5 7
M  V30 7 1 7 8
M  V30 8 2 8 9
M  V30 9 1 8 10
M  V30 END BOND
M  V30 END CTAB
M  END
>  <Molecule Name>
2,6-dimethyl-1,3(e),5(z),7-octatetraene

>  <Molecule Name 2>
2,6-dimethyl-1,3(e),5(z),7-octatetraene

>  <Database>
Essential Oil Database

>  <InChI>
InChI=1S/C10H14/c1-5-10(4)8-6-7-9(2)3/h5-8H,1-2H2,3-4H3/b7-6+,10-8-

>  <InChI-Key>
HPZWSJQQCJZBBG-QDJLDCPTSA-N

>  <Smiles>
CC(/C=C/C=C(/C)\C=C)=C

>  <Molecular Formula>
C10H14

$$$$
2,6-dimethyl-3(e),5(z),7-octatrien-2-ol
Actelion Java MolfileCreator 2.0

  0  0  0  0  0  0              0 V3000
M  V30 BEGIN CTAB
M  V30 COUNTS 11 10 0 0 0
M  V30 BEGIN ATOM
M  V30 1 O 0.0 0.0 0.0 0
M  V30 2 C -1.3312 -0.7075 0.0 0
M  V30 3 C -2.0987 0.6236 0.0 0
M  V30 4 C -0.6116 -1.9428 0.0 0
M  V30 5 C -2.6624 -1.4271 0.0 0
M  V30 6 C -1.3911 1.9548 0.0 0
M  V30 7 C -2.1707 3.286 0.0 0
M  V30 8 C -3.7058 3.334 0.0 0
M  V30 9 C -4.4853 2.0987 0.0 0
M  V30 10 C -4.4853 4.6652 0.0 0
M  V30 11 C -3.7777 0.8634 0.0 0
M  V30 END ATOM
M  V30 BEGIN BOND
M  V30 1 1 1 2
M  V30 2 1 2 3
M  V30 3 1 2 4
M  V30 4 1 2 5
M  V30 5 2 3 6
M  V30 6 1 6 7
M  V30 7 2 7 8
M  V30 8 1 8 9
M  V30 9 1 8 10
M  V30 10 2 9 11
M  V30 END BOND
M  V30 END CTAB
M  END
>  <Molecule Name>
2,6-dimethyl-3(e),5(z),7-octatrien-2-ol

>  <Molecule Name 2>
2,6-dimethyl-3(e),5(z),7-octatrien-2-ol

>  <Database>
Essential Oil Database

>  <InChI>
InChI=1S/C10H16O/c1-5-9(2)7-6-8-10(3,4)11/h5-8,11H,1H2,2-4H3/b8-6+,9-7-

>  <InChI-Key>
HYBLHNGOEIJQDA-FFELTBSMSA-N

>  <Smiles>
CC(C)(/C=C/C=C(/C)\C=C)O

>  <Molecular Formula>
C10H16O

$$$$
(e)-2-heptenal
Actelion Java MolfileCreator 2.0

  0  0  0  0  0  0              0 V3000
M  V30 BEGIN CTAB
M  V30 COUNTS 8 7 0 0 0
M  V30 BEGIN ATOM
M  V30 1 O 0.0 0.0 0.0 0
M  V30 2 C 0.7139 -1.2463 0.0 0
M  V30 3 C -0.0605 -2.4926 0.0 0
M  V30 4 C -1.6093 -2.4442 0.0 0
M  V30 5 C -2.3958 -3.6906 0.0 0
M  V30 6 C -3.9447 -3.6422 0.0 0
M  V30 7 C -4.7312 -4.8885 0.0 0
M  V30 8 C -6.28 -4.8401 0.0 0
M  V30 END ATOM
M  V30 BEGIN BOND
M  V30 1 2 1 2
M  V30 2 1 2 3
M  V30 3 2 3 4
M  V30 4 1 4 5
M  V30 5 1 5 6
M  V30 6 1 6 7
M  V30 7 1 7 8
M  V30 END BOND
M  V30 END CTAB
M  END
>  <Molecule Name>
(e)-2-heptenal

>  <Molecule Name 2>
(e)-2-heptenal

>  <Database>
Essential Oil Database

>  <InChI>
InChI=1S/C7H12O/c1-2-3-4-5-6-7-8/h5-7H,2-4H2,1H3/b6-5+

>  <InChI-Key>
NDFKTBCGKNOHPJ-AATRIKPKSA-N

>  <Smiles>
CCCC/C=C/C=O

>  <Molecular Formula>
C7H12O

$$$$
(e,e)-2,4-nonadienal
Actelion Java MolfileCreator 2.0

  0  0  0  0  0  0              0 V3000
M  V30 BEGIN CTAB
M  V30 COUNTS 10 9 0 0 0
M  V30 BEGIN ATOM
M  V30 1 O 0.0 0.0 0.0 0
M  V30 2 C 0.713 -1.2447 0.0 0
M  V30 3 C -0.0604 -2.4895 0.0 0
M  V30 4 C -1.6073 -2.4412 0.0 0
M  V30 5 C -2.3928 -3.6859 0.0 0
M  V30 6 C -3.9397 -3.6376 0.0 0
M  V30 7 C -4.7132 -4.8824 0.0 0
M  V30 8 C -6.2601 -4.834 0.0 0
M  V30 9 C -7.0456 -6.0788 0.0 0
M  V30 10 C -8.5925 -6.0305 0.0 0
M  V30 END ATOM
M  V30 BEGIN BOND
M  V30 1 2 1 2
M  V30 2 1 2 3
M  V30 3 2 3 4
M  V30 4 1 4 5
M  V30 5 2 5 6
M  V30 6 1 6 7
M  V30 7 1 7 8
M  V30 8 1 8 9
M  V30 9 1 9 10
M  V30 END BOND
M  V30 END CTAB
M  END
>  <Molecule Name>
(e,e)-2,4-nonadienal

>  <Molecule Name 2>
(e,e)-2,4-nonadienal

>  <Database>
Essential Oil Database

>  <InChI>
InChI=1S/C9H14O/c1-2-3-4-5-6-7-8-9-10/h5-9H,2-4H2,1H3/b6-5+,8-7+

>  <InChI-Key>
ZHHYXNZJDGDGPJ-BSWSSELBSA-N

>  <Smiles>
CCCC/C=C/C=C/C=O

>  <Molecular Formula>
C9H14O

$$$$
hexanoic acid
Actelion Java MolfileCreator 2.0

  0  0  0  0  0  0              0 V3000
M  V30 BEGIN CTAB
M  V30 COUNTS 8 7 0 0 0
M  V30 BEGIN ATOM
M  V30 1 O 0.0 0.0 0.0 0
M  V30 2 C -0.0469 -1.4784 0.0 0
M  V30 3 O -1.4198 -2.2177 0.0 0
M  V30 4 C 1.232 -2.2177 0.0 0
M  V30 5 C 2.511 -1.3846 0.0 0
M  V30 6 C 3.7901 -2.1004 0.0 0
M  V30 7 C 5.0691 -1.2672 0.0 0
M  V30 8 C 6.3481 -1.983 0.0 0
M  V30 END ATOM
M  V30 BEGIN BOND
M  V30 1 2 1 2
M  V30 2 1 2 3
M  V30 3 1 2 4
M  V30 4 1 4 5
M  V30 5 1 5 6
M  V30 6 1 6 7
M  V30 7 1 7 8
M  V30 END BOND
M  V30 END CTAB
M  END
>  <Molecule Name>
hexanoic acid

>  <Molecule Name 2>
hexanoic acid

>  <Database>
Essential Oil Database

>  <InChI>
InChI=1S/C6H12O2/c1-2-3-4-5-6(7)8/h2-5H2,1H3,(H,7,8)

>  <InChI-Key>
FUZZWVXGSFPDMH-UHFFFAOYSA-N

>  <Smiles>
CCCCCC(O)=O

>  <Molecular Formula>
C6H12O2

$$$$
p-tolyl-2-propene
Actelion Java MolfileCreator 2.0

  0  0  0  0  0  0              0 V3000
M  V30 BEGIN CTAB
M  V30 COUNTS 10 10 0 0 0
M  V30 BEGIN ATOM
M  V30 1 C 0.0 0.0 0.0 0
M  V30 2 C -0.0481 1.5419 0.0 0
M  V30 3 C 1.2407 -0.7107 0.0 0
M  V30 4 C -1.3371 -0.7107 0.0 0
M  V30 5 C 1.1925 2.3249 0.0 0
M  V30 6 C 2.4815 0.0602 0.0 0
M  V30 7 C -2.6742 0.0602 0.0 0
M  V30 8 C 2.4333 1.6142 0.0 0
M  V30 9 C 1.1444 3.8668 0.0 0
M  V30 10 C -4.0114 -0.6505 0.0 0
M  V30 END ATOM
M  V30 BEGIN BOND
M  V30 1 2 1 2
M  V30 2 1 1 3
M  V30 3 1 1 4
M  V30 4 1 2 5
M  V30 5 2 3 6
M  V30 6 1 4 7
M  V30 7 2 5 8
M  V30 8 1 5 9
M  V30 9 2 7 10
M  V30 10 1 6 8
M  V30 END BOND
M  V30 END CTAB
M  END
>  <Molecule Name>
p-tolyl-2-propene

>  <Molecule Name 2>
p-tolyl-2-propene

>  <Database>
Essential Oil Database

>  <InChI>
InChI=1S/C10H12/c1-3-5-10-7-4-6-9(2)8-10/h3-4,6-8H,1,5H2,2H3

>  <InChI-Key>
JVQAREFZPKBHPG-UHFFFAOYSA-N

>  <Smiles>
Cc1cccc(CC=C)c1

>  <Molecular Formula>
C10H12

$$$$
cyperol
Actelion Java MolfileCreator 2.0

  0  0  0  0  0  0              0 V3000
M  V30 BEGIN CTAB
M  V30 COUNTS 16 17 0 0 0
M  V30 BEGIN ATOM
M  V30 1 O 0.0 0.0 0.0 0
M  V30 2 C -1.313 0.7689 0.0 0 CFG=1
M  V30 3 C -2.6261 0.0591 0.0 0
M  V30 4 C -1.3604 2.2831 0.0 0
M  V30 5 C -3.9392 0.828 0.0 0
M  V30 6 C -2.6735 -1.3604 0.0 0
M  V30 7 C -2.6735 3.052 0.0 0
M  V30 8 C -3.9866 2.3422 0.0 0 CFG=2
M  V30 9 C -5.2523 0.1182 0.0 0
M  V30 10 C -5.2997 3.1112 0.0 0
M  V30 11 C -4.0339 3.8564 0.0 0
M  V30 12 C -6.5654 0.8872 0.0 0 CFG=1
M  V30 13 C -6.6128 2.4132 0.0 0
M  V30 14 C -7.8785 0.1774 0.0 0
M  V30 15 C -9.1916 0.9463 0.0 0
M  V30 16 C -7.9259 -1.2421 0.0 0
M  V30 END ATOM
M  V30 BEGIN BOND
M  V30 1 1 2 1 CFG=1
M  V30 2 1 2 3
M  V30 3 1 2 4
M  V30 4 2 3 5
M  V30 5 1 3 6
M  V30 6 1 4 7
M  V30 7 1 5 8
M  V30 8 1 5 9
M  V30 9 1 8 10
M  V30 10 1 8 11 CFG=3
M  V30 11 1 9 12
M  V30 12 1 10 13
M  V30 13 1 12 14 CFG=3
M  V30 14 2 14 15
M  V30 15 1 14 16
M  V30 16 1 7 8
M  V30 17 1 12 13
M  V30 END BOND
M  V30 BEGIN COLLECTION
M  V30 MDLV30/STEABS ATOMS=(3 2 8 12)
M  V30 END COLLECTION
M  V30 END CTAB
M  END
>  <Molecule Name>
cyperol

>  <Molecule Name 2>
cyperol

>  <Database>
Essential Oil Database

>  <InChI>
InChI=1S/C15H24O/c1-10(2)12-5-7-15(4)8-6-14(16)11(3)13(15)9-12/h12,14,16H,1,5-9H2,2-4H3/t12-,14-,15+/m1/s1

>  <InChI-Key>
APWLDLGOYJHNIK-YUELXQCFSA-N

>  <Smiles>
C[C@](CC[C@H](C1)C(C)=C)(CC2)C1=C(C)[C@@H]2O

>  <Molecular Formula>
C15H24O

$$$$
ocimenol
Actelion Java MolfileCreator 2.0

  0  0  0  0  0  0              0 V3000
M  V30 BEGIN CTAB
M  V30 COUNTS 11 10 0 0 0
M  V30 BEGIN ATOM
M  V30 1 O 0.0 0.0 0.0 0
M  V30 2 C -1.3516 0.8087 0.0 0
M  V30 3 C -0.6469 2.1603 0.0 0
M  V30 4 C -2.1603 -0.4505 0.0 0
M  V30 5 C -2.7033 1.6174 0.0 0
M  V30 6 C 0.8087 2.2066 0.0 0
M  V30 7 C 1.4903 3.5582 0.0 0
M  V30 8 C 2.9459 3.6045 0.0 0
M  V30 9 C 3.6276 4.9561 0.0 0
M  V30 10 C 3.6276 2.3452 0.0 0
M  V30 11 C 5.0832 5.0024 0.0 0
M  V30 END ATOM
M  V30 BEGIN BOND
M  V30 1 1 1 2
M  V30 2 1 2 3
M  V30 3 1 2 4
M  V30 4 1 2 5
M  V30 5 1 3 6
M  V30 6 1 6 7
M  V30 7 2 7 8
M  V30 8 1 8 9
M  V30 9 1 8 10
M  V30 10 2 9 11
M  V30 END BOND
M  V30 END CTAB
M  END
>  <Molecule Name>
ocimenol

>  <Molecule Name 2>
ocimenol

>  <Database>
Essential Oil Database

>  <InChI>
InChI=1S/C10H18O/c1-5-9(2)7-6-8-10(3,4)11/h5,7,11H,1,6,8H2,2-4H3/b9-7+

>  <InChI-Key>
IJFKZRMIRAVXRK-VQHVLOKHSA-N

>  <Smiles>
CC(C)(CC/C=C(\C)/C=C)O

>  <Molecular Formula>
C10H18O

$$$$
4-tridecen-6-yne
Actelion Java MolfileCreator 2.0

  0  0  0  0  0  0              0 V3000
M  V30 BEGIN CTAB
M  V30 COUNTS 13 12 0 0 0
M  V30 BEGIN ATOM
M  V30 1 C 0.0 0.0 0.0 0
M  V30 2 C 1.2491 -0.7276 0.0 0
M  V30 3 C -1.3461 0.7882 0.0 0
M  V30 4 C 2.4982 -1.4553 0.0 0
M  V30 5 C -1.3946 2.3406 0.0 0
M  V30 6 C 3.7474 -0.667 0.0 0
M  V30 7 C -2.7408 3.1289 0.0 0
M  V30 8 C 4.9965 -1.3946 0.0 0
M  V30 9 C -2.7893 4.6812 0.0 0
M  V30 10 C 6.2457 -0.6063 0.0 0
M  V30 11 C -4.1355 5.4695 0.0 0
M  V30 12 C 7.4948 -1.334 0.0 0
M  V30 13 C 8.744 -0.5457 0.0 0
M  V30 END ATOM
M  V30 BEGIN BOND
M  V30 1 3 1 2
M  V30 2 1 1 3
M  V30 3 1 2 4
M  V30 4 2 3 5 CFG=2
M  V30 5 1 4 6
M  V30 6 1 5 7
M  V30 7 1 6 8
M  V30 8 1 7 9
M  V30 9 1 8 10
M  V30 10 1 9 11
M  V30 11 1 10 12
M  V30 12 1 12 13
M  V30 END BOND
M  V30 END CTAB
M  END
>  <Molecule Name>
4-tridecen-6-yne

>  <Molecule Name 2>
4-tridecen-6-yne

>  <Database>
Essential Oil Database

>  <InChI>
InChI=1S/C13H22/c1-3-5-7-9-11-13-12-10-8-6-4-2/h7,9H,3-6,8,10,12H2,1-2H3

>  <InChI-Key>
NPZMKXJJWSFOQL-UHFFFAOYSA-N

>  <Smiles>
CCCCCCC#CC=CCCC

>  <Molecular Formula>
C13H22

$$$$
isoeugenol
Actelion Java MolfileCreator 2.0

  0  0  0  0  0  0              0 V3000
M  V30 BEGIN CTAB
M  V30 COUNTS 12 12 0 0 0
M  V30 BEGIN ATOM
M  V30 1 O 0.0 0.0 0.0 0
M  V30 2 C -0.0468 -1.4758 0.0 0
M  V30 3 C -1.3704 0.8199 0.0 0
M  V30 4 C -1.4172 -2.1669 0.0 0
M  V30 5 C 1.2298 -2.1669 0.0 0
M  V30 6 O -2.7877 -1.347 0.0 0
M  V30 7 C -1.4641 -3.6427 0.0 0
M  V30 8 C 1.183 -3.6427 0.0 0
M  V30 9 C -0.1874 -4.3338 0.0 0
M  V30 10 C 2.4597 -4.3338 0.0 0
M  V30 11 C 2.4129 -5.8097 0.0 0
M  V30 12 C 3.6896 -6.5476 0.0 0
M  V30 END ATOM
M  V30 BEGIN BOND
M  V30 1 1 1 2
M  V30 2 1 1 3
M  V30 3 2 2 4
M  V30 4 1 2 5
M  V30 5 1 4 6
M  V30 6 1 4 7
M  V30 7 2 5 8
M  V30 8 2 7 9
M  V30 9 1 8 10
M  V30 10 2 10 11
M  V30 11 1 11 12
M  V30 12 1 8 9
M  V30 END BOND
M  V30 END CTAB
M  END
>  <Molecule Name>
isoeugenol

>  <Molecule Name 2>
isoeugenol

>  <Database>
Essential Oil Database

>  <InChI>
InChI=1S/C10H12O2/c1-3-4-8-5-6-9(11)10(7-8)12-2/h3-7,11H,1-2H3/b4-3+

>  <InChI-Key>
BJIOGJUNALELMI-ONEGZZNKSA-N

>  <Smiles>
C/C=C/c(cc1)cc(OC)c1O

>  <Molecular Formula>
C10H12O2

$$$$
delta-decalactone
Actelion Java MolfileCreator 2.0

  0  0  0  0  0  0              0 V3000
M  V30 BEGIN CTAB
M  V30 COUNTS 12 12 0 0 0
M  V30 BEGIN ATOM
M  V30 1 O 0.0 0.0 0.0 0
M  V30 2 C -0.0472 1.5125 0.0 0
M  V30 3 O -1.3589 2.2805 0.0 0
M  V30 4 C 1.1698 2.2805 0.0 0
M  V30 5 C -1.4061 3.7931 0.0 0 CFG=2
M  V30 6 C 1.1225 3.7931 0.0 0
M  V30 7 C -0.189 4.5611 0.0 0
M  V30 8 C -2.7178 4.5611 0.0 0
M  V30 9 C -4.0294 3.8521 0.0 0
M  V30 10 C -5.341 4.6202 0.0 0
M  V30 11 C -6.6527 3.9112 0.0 0
M  V30 12 C -7.9643 4.6793 0.0 0
M  V30 END ATOM
M  V30 BEGIN BOND
M  V30 1 2 1 2
M  V30 2 1 2 3
M  V30 3 1 2 4
M  V30 4 1 3 5
M  V30 5 1 4 6
M  V30 6 1 5 7
M  V30 7 1 5 8 CFG=1
M  V30 8 1 8 9
M  V30 9 1 9 10
M  V30 10 1 10 11
M  V30 11 1 11 12
M  V30 12 1 6 7
M  V30 END BOND
M  V30 BEGIN COLLECTION
M  V30 MDLV30/STERAC1 ATOMS=(1 5)
M  V30 END COLLECTION
M  V30 END CTAB
M  END
>  <Molecule Name>
delta-decalactone

>  <Molecule Name 2>
delta-decalactone

>  <Database>
Essential Oil Database

>  <InChI>
InChI=1S/C10H18O2/c1-2-3-4-6-9-7-5-8-10(11)12-9/h9H,2-8H2,1H3/t9-/m0/s1

>  <InChI-Key>
GHBSPIPJMLAMEP-VIFPVBQESA-N

>  <Smiles>
CCCCCC(CCC1)OC1=O

>  <Molecular Formula>
C10H18O2

$$$$
3-butylidenephthalide
Actelion Java MolfileCreator 2.0

  0  0  0  0  0  0              0 V3000
M  V30 BEGIN CTAB
M  V30 COUNTS 14 15 0 0 0
M  V30 BEGIN ATOM
M  V30 1 O 0.0 0.0 0.0 0
M  V30 2 C 0.419 1.4605 0.0 0
M  V30 3 O -0.4908 2.7056 0.0 0
M  V30 4 C 1.7837 1.9753 0.0 0
M  V30 5 C 0.3232 3.9506 0.0 0
M  V30 6 C 1.7359 3.5077 0.0 0
M  V30 7 C 3.0168 1.257 0.0 0
M  V30 8 C -0.1915 5.4112 0.0 0
M  V30 9 C 2.9689 4.2858 0.0 0
M  V30 10 C 4.2499 2.0351 0.0 0
M  V30 11 C -1.688 5.7703 0.0 0
M  V30 12 C 4.202 3.5675 0.0 0
M  V30 13 C -2.2028 7.2309 0.0 0
M  V30 14 C -3.6992 7.59 0.0 0
M  V30 END ATOM
M  V30 BEGIN BOND
M  V30 1 2 1 2
M  V30 2 1 2 3
M  V30 3 1 2 4
M  V30 4 1 3 5
M  V30 5 2 4 6
M  V30 6 1 4 7
M  V30 7 2 5 8 CFG=2
M  V30 8 1 6 9
M  V30 9 2 7 10
M  V30 10 1 8 11
M  V30 11 2 9 12
M  V30 12 1 11 13
M  V30 13 1 13 14
M  V30 14 1 5 6
M  V30 15 1 10 12
M  V30 END BOND
M  V30 END CTAB
M  END
>  <Molecule Name>
3-butylidenephthalide

>  <Molecule Name 2>
3-butylidenephthalide

>  <Database>
Essential Oil Database

>  <InChI>
InChI=1S/C12H12O2/c1-2-3-8-11-9-6-4-5-7-10(9)12(13)14-11/h4-8H,2-3H2,1H3

>  <InChI-Key>
WMBOCUXXNSOQHM-UHFFFAOYSA-N

>  <Smiles>
CCCC=C(c1c2cccc1)OC2=O

>  <Molecular Formula>
C12H12O2

$$$$
2-methylbutyltiglate
Actelion Java MolfileCreator 2.0

  0  0  0  0  0  0              0 V3000
M  V30 BEGIN CTAB
M  V30 COUNTS 12 11 0 0 0
M  V30 BEGIN ATOM
M  V30 1 O 0.0 0.0 0.0 0
M  V30 2 C -0.0481 1.54 0.0 0
M  V30 3 O 1.1911 2.322 0.0 0
M  V30 4 C -1.3836 2.322 0.0 0
M  V30 5 C 2.4303 1.6001 0.0 0
M  V30 6 C -1.4317 3.862 0.0 0
M  V30 7 C -2.719 1.6001 0.0 0
M  V30 8 C 3.6695 2.3822 0.0 0 CFG=2
M  V30 9 C -2.7672 4.6441 0.0 0
M  V30 10 C 4.9087 1.6603 0.0 0
M  V30 11 C 3.6214 3.9222 0.0 0
M  V30 12 C 6.148 2.4423 0.0 0
M  V30 END ATOM
M  V30 BEGIN BOND
M  V30 1 2 1 2
M  V30 2 1 2 3
M  V30 3 1 2 4
M  V30 4 1 3 5
M  V30 5 2 4 6
M  V30 6 1 4 7
M  V30 7 1 5 8
M  V30 8 1 6 9
M  V30 9 1 8 10
M  V30 10 1 8 11 CFG=1
M  V30 11 1 10 12
M  V30 END BOND
M  V30 BEGIN COLLECTION
M  V30 MDLV30/STERAC1 ATOMS=(1 8)
M  V30 END COLLECTION
M  V30 END CTAB
M  END
>  <Molecule Name>
2-methylbutyltiglate

>  <Molecule Name 2>
2-methylbutyltiglate

>  <Database>
Essential Oil Database

>  <InChI>
InChI=1S/C10H18O2/c1-5-8(3)7-12-10(11)9(4)6-2/h6,8H,5,7H2,1-4H3/b9-6+/t8-/m0/s1

>  <InChI-Key>
DEJJNOHKWLTTKE-CYXIBPNKSA-N

>  <Smiles>
CCC(C)COC(/C(\C)=C/C)=O

>  <Molecular Formula>
C10H18O2

$$$$
isobutylangelate
Actelion Java MolfileCreator 2.0

  0  0  0  0  0  0              0 V3000
M  V30 BEGIN CTAB
M  V30 COUNTS 11 10 0 0 0
M  V30 BEGIN ATOM
M  V30 1 O 0.0 0.0 0.0 0
M  V30 2 C -0.049 -1.471 0.0 0
M  V30 3 O 1.2136 -2.1943 0.0 0
M  V30 4 C -1.4097 -2.1943 0.0 0
M  V30 5 C 2.4763 -1.3975 0.0 0
M  V30 6 C -2.7705 -1.3975 0.0 0
M  V30 7 C -1.4588 -3.6654 0.0 0
M  V30 8 C 3.7389 -2.1208 0.0 0
M  V30 9 C -2.8195 0.1716 0.0 0
M  V30 10 C 5.0016 -1.3239 0.0 0
M  V30 11 C 3.6899 -3.5918 0.0 0
M  V30 END ATOM
M  V30 BEGIN BOND
M  V30 1 2 1 2
M  V30 2 1 2 3
M  V30 3 1 2 4
M  V30 4 1 3 5
M  V30 5 2 4 6
M  V30 6 1 4 7
M  V30 7 1 5 8
M  V30 8 1 6 9
M  V30 9 1 8 10
M  V30 10 1 8 11
M  V30 END BOND
M  V30 END CTAB
M  END
>  <Molecule Name>
isobutylangelate

>  <Molecule Name 2>
isobutylangelate

>  <Database>
Essential Oil Database

>  <InChI>
InChI=1S/C9H16O2/c1-5-8(4)9(10)11-6-7(2)3/h5,7H,6H2,1-4H3/b8-5-

>  <InChI-Key>
XDEGQMQKHFPBEW-YVMONPNESA-N

>  <Smiles>
CC(C)COC(/C(\C)=C\C)=O

>  <Molecular Formula>
C9H16O2

$$$$
isobutyltiglate
Actelion Java MolfileCreator 2.0

  0  0  0  0  0  0              0 V3000
M  V30 BEGIN CTAB
M  V30 COUNTS 11 10 0 0 0
M  V30 BEGIN ATOM
M  V30 1 O 0.0 0.0 0.0 0
M  V30 2 C -0.0467 -1.4724 0.0 0
M  V30 3 O 1.227 -2.1619 0.0 0
M  V30 4 C -1.414 -2.1619 0.0 0
M  V30 5 C 2.5008 -1.3439 0.0 0
M  V30 6 C -2.7813 -1.3439 0.0 0
M  V30 7 C -1.4607 -3.6343 0.0 0
M  V30 8 C 3.7746 -2.0333 0.0 0
M  V30 9 C -4.1485 -2.0333 0.0 0
M  V30 10 C 5.0484 -1.2153 0.0 0
M  V30 11 C 3.7278 -3.5058 0.0 0
M  V30 END ATOM
M  V30 BEGIN BOND
M  V30 1 2 1 2
M  V30 2 1 2 3
M  V30 3 1 2 4
M  V30 4 1 3 5
M  V30 5 2 4 6
M  V30 6 1 4 7
M  V30 7 1 5 8
M  V30 8 1 6 9
M  V30 9 1 8 10
M  V30 10 1 8 11
M  V30 END BOND
M  V30 END CTAB
M  END
>  <Molecule Name>
isobutyltiglate

>  <Molecule Name 2>
isobutyltiglate

>  <Database>
Essential Oil Database

>  <InChI>
InChI=1S/C9H16O2/c1-5-8(4)9(10)11-6-7(2)3/h5,7H,6H2,1-4H3/b8-5+

>  <InChI-Key>
XDEGQMQKHFPBEW-VMPITWQZSA-N

>  <Smiles>
CC(C)COC(/C(\C)=C/C)=O

>  <Molecular Formula>
C9H16O2

$$$$
(e)-3-octenyl acetate
Actelion Java MolfileCreator 2.0

  0  0  0  0  0  0              0 V3000
M  V30 BEGIN CTAB
M  V30 COUNTS 12 11 0 0 0
M  V30 BEGIN ATOM
M  V30 1 O 0.0 0.0 0.0 0
M  V30 2 C 1.261 0.7835 0.0 0
M  V30 3 O 2.5221 0.0612 0.0 0
M  V30 4 C 1.212 2.3507 0.0 0
M  V30 5 C 3.7831 0.8447 0.0 0
M  V30 6 C 5.0442 0.1224 0.0 0
M  V30 7 C 6.3053 0.9182 0.0 0
M  V30 8 C 7.5663 0.1958 0.0 0
M  V30 9 C 8.8274 0.9794 0.0 0
M  V30 10 C 8.7784 2.5466 0.0 0
M  V30 11 C 10.0395 3.3424 0.0 0
M  V30 12 C 9.9905 4.9095 0.0 0
M  V30 END ATOM
M  V30 BEGIN BOND
M  V30 1 2 1 2
M  V30 2 1 2 3
M  V30 3 1 2 4
M  V30 4 1 3 5
M  V30 5 1 5 6
M  V30 6 1 6 7
M  V30 7 2 7 8
M  V30 8 1 8 9
M  V30 9 1 9 10
M  V30 10 1 10 11
M  V30 11 1 11 12
M  V30 END BOND
M  V30 END CTAB
M  END
>  <Molecule Name>
(e)-3-octenyl acetate

>  <Molecule Name 2>
(e)-3-octenyl acetate

>  <Database>
Essential Oil Database

>  <InChI>
InChI=1S/C10H18O2/c1-3-4-5-6-7-8-9-12-10(2)11/h6-7H,3-5,8-9H2,1-2H3/b7-6+

>  <InChI-Key>
PHXNWSHRRVPWLO-VOTSOKGWSA-N

>  <Smiles>
CCCC/C=C/CCOC(C)=O

>  <Molecular Formula>
C10H18O2

$$$$
beta-humulene
Actelion Java MolfileCreator 2.0

  0  0  0  0  0  0              0 V3000
M  V30 BEGIN CTAB
M  V30 COUNTS 15 15 0 0 0
M  V30 BEGIN ATOM
M  V30 1 C 0.0 0.0 0.0 0
M  V30 2 C -1.1038 1.016 0.0 0
M  V30 3 C 1.3296 0.4892 0.0 0
M  V30 4 C -0.3763 -1.3547 0.0 0
M  V30 5 C 1.6055 1.9442 0.0 0
M  V30 6 C -1.8062 -1.7435 0.0 0
M  V30 7 C 0.5017 2.9602 0.0 0
M  V30 8 C -2.9101 -0.7275 0.0 0
M  V30 9 C -1.0787 2.5965 0.0 0
M  V30 10 C -2.6717 0.878 0.0 0
M  V30 11 C -2.4334 3.2613 0.0 0
M  V30 12 C -1.593 4.0139 0.0 0
M  V30 13 C -0.4264 3.9136 0.0 0
M  V30 14 C -3.4494 2.1825 0.0 0
M  V30 15 C -4.1393 0.6773 0.0 0
M  V30 END ATOM
M  V30 BEGIN BOND
M  V30 1 2 1 2
M  V30 2 1 1 3
M  V30 3 1 1 4
M  V30 4 1 3 5
M  V30 5 1 4 6
M  V30 6 2 5 7 CFG=2
M  V30 7 1 6 8
M  V30 8 1 7 9
M  V30 9 1 8 10
M  V30 10 1 9 11
M  V30 11 1 9 12
M  V30 12 1 9 13
M  V30 13 2 10 14 CFG=2
M  V30 14 1 10 15
M  V30 15 1 11 14
M  V30 END BOND
M  V30 END CTAB
M  END
>  <Molecule Name>
beta-humulene

>  <Molecule Name 2>
beta-humulene

>  <Database>
Essential Oil Database

>  <InChI>
InChI=1S/C15H24/c1-13-7-5-8-14(2)10-12-15(3,4)11-6-9-13/h6,10-11H,1,5,7-9,12H2,2-4H3

>  <InChI-Key>
HAVYZKHVTLAPDZ-UHFFFAOYSA-N

>  <Smiles>
CC(C)(CC=C(C)CCC1)C=CCC1=C

>  <Molecular Formula>
C15H24

$$$$
isoamyl isobutyrate
Actelion Java MolfileCreator 2.0

  0  0  0  0  0  0              0 V3000
M  V30 BEGIN CTAB
M  V30 COUNTS 11 10 0 0 0
M  V30 BEGIN ATOM
M  V30 1 O 0.0 0.0 0.0 0
M  V30 2 C -0.0485 1.5549 0.0 0
M  V30 3 O 1.2026 2.3445 0.0 0
M  V30 4 C -1.3969 2.3445 0.0 0
M  V30 5 C 2.4538 1.6156 0.0 0
M  V30 6 C -2.7454 1.6156 0.0 0
M  V30 7 C -1.4455 3.8994 0.0 0
M  V30 8 C 3.705 2.4052 0.0 0
M  V30 9 C 4.9563 1.6763 0.0 0
M  V30 10 C 6.2075 2.466 0.0 0
M  V30 11 C 4.9077 0.2186 0.0 0
M  V30 END ATOM
M  V30 BEGIN BOND
M  V30 1 2 1 2
M  V30 2 1 2 3
M  V30 3 1 2 4
M  V30 4 1 3 5
M  V30 5 1 4 6
M  V30 6 1 4 7
M  V30 7 1 5 8
M  V30 8 1 8 9
M  V30 9 1 9 10
M  V30 10 1 9 11
M  V30 END BOND
M  V30 END CTAB
M  END
>  <Molecule Name>
isoamyl isobutyrate

>  <Molecule Name 2>
isoamyl isobutyrate

>  <Database>
Essential Oil Database

>  <InChI>
InChI=1S/C9H18O2/c1-7(2)5-6-11-9(10)8(3)4/h7-8H,5-6H2,1-4H3

>  <InChI-Key>
VFTGLSWXJMRZNB-UHFFFAOYSA-N

>  <Smiles>
CC(C)CCOC(C(C)C)=O

>  <Molecular Formula>
C9H18O2

$$$$
beta-terpineol
Actelion Java MolfileCreator 2.0

  0  0  0  0  0  0              0 V3000
M  V30 BEGIN CTAB
M  V30 COUNTS 26 27 0 0 0
M  V30 BEGIN ATOM
M  V30 1 O 0.0 0.0 0.0 0
M  V30 2 C -0.0486 1.5569 0.0 0 CFG=1
M  V30 3 C -1.3502 -0.7298 0.0 0 CFG=1
M  V30 4 O 1.2042 2.3476 0.0 0
M  V30 5 C -1.3988 2.3476 0.0 0 CFG=2
M  V30 6 C -2.7004 0.0608 0.0 0 CFG=2
M  V30 7 C -1.3988 -2.1895 0.0 0
M  V30 8 C 2.4571 1.6178 0.0 0
M  V30 9 O -1.4475 3.9046 0.0 0
M  V30 10 C -2.749 1.6178 0.0 0 CFG=2
M  V30 11 O -4.0506 -0.6568 0.0 0
M  V30 12 O -0.1459 -2.9071 0.0 0
M  V30 13 C 3.71 2.4084 0.0 0
M  V30 14 C 2.4084 0.1581 0.0 0
M  V30 15 O -4.0992 2.4084 0.0 0
M  V30 16 O 3.6613 3.9654 0.0 0
M  V30 17 C 4.9628 1.6786 0.0 0
M  V30 18 O 1.0582 -0.5595 0.0 0
M  V30 19 C 3.6613 -0.5595 0.0 0
M  V30 20 C 2.3111 4.7561 0.0 0
M  V30 21 C 4.9142 0.2189 0.0 0
M  V30 22 C 1.0096 -2.0192 0.0 0
M  V30 23 C 6.1671 -0.5108 0.0 0
M  V30 24 C 6.1184 -1.9705 0.0 0
M  V30 25 C 7.3713 -2.6882 0.0 0
M  V30 26 O 7.3227 -4.1479 0.0 0
M  V30 END ATOM
M  V30 BEGIN BOND
M  V30 1 1 1 2
M  V30 2 1 1 3
M  V30 3 1 2 4 CFG=3
M  V30 4 1 2 5
M  V30 5 1 3 6
M  V30 6 1 3 7 CFG=3
M  V30 7 1 4 8
M  V30 8 1 5 9 CFG=1
M  V30 9 1 5 10
M  V30 10 1 6 11 CFG=1
M  V30 11 1 7 12
M  V30 12 2 8 13
M  V30 13 1 8 14
M  V30 14 1 10 15 CFG=3
M  V30 15 1 13 16
M  V30 16 1 13 17
M  V30 17 1 14 18
M  V30 18 2 14 19
M  V30 19 1 16 20
M  V30 20 2 17 21
M  V30 21 1 18 22
M  V30 22 1 21 23
M  V30 23 2 23 24
M  V30 24 1 24 25
M  V30 25 1 25 26
M  V30 26 1 6 10
M  V30 27 1 19 21
M  V30 END BOND
M  V30 BEGIN COLLECTION
M  V30 MDLV30/STEABS ATOMS=(5 2 3 5 6 10)
M  V30 END COLLECTION
M  V30 END CTAB
M  END
>  <Molecule Name>
beta-terpineol

>  <Molecule Name 2>
beta-terpineol

>  <Database>
Essential Oil Database

>  <InChI>
InChI=1S/C17H24O9/c1-23-10-6-9(4-3-5-18)7-11(24-2)16(10)26-17-15(22)14(21)13(20)12(8-19)25-17/h3-4,6-7,12-15,17-22H,5,8H2,1-2H3/b4-3+/t12-,13-,14+,15-,17+/m1/s1

>  <InChI-Key>
QJVXKWHHAMZTBY-GCPOEHJPSA-N

>  <Smiles>
COc1cc(/C=C/CO)cc(OC)c1O[C@@H]([C@@H]([C@H]1O)O)O[C@H](CO)[C@H]1O

>  <Molecular Formula>
C17H24O9

$$$$
5-methyl-3-heptanone
Actelion Java MolfileCreator 2.0

  0  0  0  0  0  0              0 V3000
M  V30 BEGIN CTAB
M  V30 COUNTS 9 8 0 0 0
M  V30 BEGIN ATOM
M  V30 1 O 0.0 0.0 0.0 0
M  V30 2 C -0.0487 -1.462 0.0 0
M  V30 3 C 1.2061 -2.193 0.0 0
M  V30 4 C -1.4011 -2.193 0.0 0
M  V30 5 C 2.461 -1.4011 0.0 0 CFG=2
M  V30 6 C -2.7534 -1.4011 0.0 0
M  V30 7 C 3.7159 -2.1321 0.0 0
M  V30 8 C 2.4123 0.1583 0.0 0
M  V30 9 C 4.9709 -1.3401 0.0 0
M  V30 END ATOM
M  V30 BEGIN BOND
M  V30 1 2 1 2
M  V30 2 1 2 3
M  V30 3 1 2 4
M  V30 4 1 3 5
M  V30 5 1 4 6
M  V30 6 1 5 7
M  V30 7 1 5 8 CFG=1
M  V30 8 1 7 9
M  V30 END BOND
M  V30 BEGIN COLLECTION
M  V30 MDLV30/STERAC1 ATOMS=(1 5)
M  V30 END COLLECTION
M  V30 END CTAB
M  END
>  <Molecule Name>
5-methyl-3-heptanone

>  <Molecule Name 2>
5-methyl-3-heptanone

>  <Database>
Essential Oil Database

>  <InChI>
InChI=1S/C8H16O/c1-4-7(3)6-8(9)5-2/h7H,4-6H2,1-3H3/t7-/m0/s1

>  <InChI-Key>
PSBKJPTZCVYXSD-ZETCQYMHSA-N

>  <Smiles>
CCC(C)CC(CC)=O

>  <Molecular Formula>
C8H16O

$$$$
heptyl hexanoate
Actelion Java MolfileCreator 2.0

  0  0  0  0  0  0              0 V3000
M  V30 BEGIN CTAB
M  V30 COUNTS 15 14 0 0 0
M  V30 BEGIN ATOM
M  V30 1 O 0.0 0.0 0.0 0
M  V30 2 C -0.0464 -1.4618 0.0 0
M  V30 3 O 1.2182 -2.1579 0.0 0
M  V30 4 C -1.4038 -2.1579 0.0 0
M  V30 5 C 2.4828 -1.3458 0.0 0
M  V30 6 C -2.7613 -1.3458 0.0 0
M  V30 7 C 3.7474 -2.0419 0.0 0
M  V30 8 C -4.1187 -2.0419 0.0 0
M  V30 9 C 5.0121 -1.2298 0.0 0
M  V30 10 C -5.4762 -1.2298 0.0 0
M  V30 11 C 6.2767 -1.9375 0.0 0
M  V30 12 C -6.8336 -1.9375 0.0 0
M  V30 13 C 7.5413 -1.1254 0.0 0
M  V30 14 C 8.806 -1.8215 0.0 0
M  V30 15 C 10.0706 -1.0093 0.0 0
M  V30 END ATOM
M  V30 BEGIN BOND
M  V30 1 2 1 2
M  V30 2 1 2 3
M  V30 3 1 2 4
M  V30 4 1 3 5
M  V30 5 1 4 6
M  V30 6 1 5 7
M  V30 7 1 6 8
M  V30 8 1 7 9
M  V30 9 1 8 10
M  V30 10 1 9 11
M  V30 11 1 10 12
M  V30 12 1 11 13
M  V30 13 1 13 14
M  V30 14 1 14 15
M  V30 END BOND
M  V30 END CTAB
M  END
>  <Molecule Name>
heptyl hexanoate

>  <Molecule Name 2>
heptyl hexanoate

>  <Database>
Essential Oil Database

>  <InChI>
InChI=1S/C13H26O2/c1-3-5-7-8-10-12-15-13(14)11-9-6-4-2/h3-12H2,1-2H3

>  <InChI-Key>
QEKCBKVWQYEUGY-UHFFFAOYSA-N

>  <Smiles>
CCCCCCCOC(CCCCC)=O

>  <Molecular Formula>
C13H26O2

$$$$
hexacosane
Actelion Java MolfileCreator 2.0

  0  0  0  0  0  0              0 V3000
M  V30 BEGIN CTAB
M  V30 COUNTS 26 25 0 0 0
M  V30 BEGIN ATOM
M  V30 1 C 0.0 0.0 0.0 0
M  V30 2 C 1.2641 0.7795 0.0 0
M  V30 3 C -1.3483 0.7795 0.0 0
M  V30 4 C 2.5282 0.0842 0.0 0
M  V30 5 C -2.6967 0.0842 0.0 0
M  V30 6 C 3.7923 0.8638 0.0 0
M  V30 7 C -4.0451 0.8638 0.0 0
M  V30 8 C 5.0564 0.1685 0.0 0
M  V30 9 C -5.3935 0.1685 0.0 0
M  V30 10 C 6.3206 0.948 0.0 0
M  V30 11 C -6.7419 0.948 0.0 0
M  V30 12 C 7.5847 0.2528 0.0 0
M  V30 13 C -8.0903 0.2528 0.0 0
M  V30 14 C 8.8488 1.0323 0.0 0
M  V30 15 C -9.4387 1.0323 0.0 0
M  V30 16 C 10.1129 0.337 0.0 0
M  V30 17 C -10.7871 0.337 0.0 0
M  V30 18 C 11.3771 1.1166 0.0 0
M  V30 19 C -12.1355 1.1166 0.0 0
M  V30 20 C 12.6412 0.4213 0.0 0
M  V30 21 C -13.4839 0.4213 0.0 0
M  V30 22 C 13.9053 1.2009 0.0 0
M  V30 23 C -14.8323 1.2009 0.0 0
M  V30 24 C 15.1694 0.5056 0.0 0
M  V30 25 C -16.1807 0.5056 0.0 0
M  V30 26 C 16.4335 1.2851 0.0 0
M  V30 END ATOM
M  V30 BEGIN BOND
M  V30 1 1 1 2
M  V30 2 1 1 3
M  V30 3 1 2 4
M  V30 4 1 3 5
M  V30 5 1 4 6
M  V30 6 1 5 7
M  V30 7 1 6 8
M  V30 8 1 7 9
M  V30 9 1 8 10
M  V30 10 1 9 11
M  V30 11 1 10 12
M  V30 12 1 11 13
M  V30 13 1 12 14
M  V30 14 1 13 15
M  V30 15 1 14 16
M  V30 16 1 15 17
M  V30 17 1 16 18
M  V30 18 1 17 19
M  V30 19 1 18 20
M  V30 20 1 19 21
M  V30 21 1 20 22
M  V30 22 1 21 23
M  V30 23 1 22 24
M  V30 24 1 23 25
M  V30 25 1 24 26
M  V30 END BOND
M  V30 END CTAB
M  END
>  <Molecule Name>
hexacosane

>  <Molecule Name 2>
hexacosane

>  <Database>
Essential Oil Database

>  <InChI>
InChI=1S/C26H54/c1-3-5-7-9-11-13-15-17-19-21-23-25-26-24-22-20-18-16-14-12-10-8-6-4-2/h3-26H2,1-2H3

>  <InChI-Key>
HMSWAIKSFDFLKN-UHFFFAOYSA-N

>  <Smiles>
CCCCCCCCCCCCCCCCCCCCCCCCCC

>  <Molecular Formula>
C26H54

$$$$
neryl hexanoate
Actelion Java MolfileCreator 2.0

  0  0  0  0  0  0              0 V3000
M  V30 BEGIN CTAB
M  V30 COUNTS 18 17 0 0 0
M  V30 BEGIN ATOM
M  V30 1 O 0.0 0.0 0.0 0
M  V30 2 C -0.0484 -1.4543 0.0 0
M  V30 3 O 1.1998 -2.1815 0.0 0
M  V30 4 C -1.3937 -2.1815 0.0 0
M  V30 5 C 2.4481 -1.3937 0.0 0
M  V30 6 C -2.739 -1.3937 0.0 0
M  V30 7 C 3.6964 -2.1209 0.0 0
M  V30 8 C -4.0842 -2.1209 0.0 0
M  V30 9 C 4.9447 -1.3331 0.0 0
M  V30 10 C -5.4295 -1.3331 0.0 0
M  V30 11 C 4.8963 0.2181 0.0 0
M  V30 12 C 6.193 -2.0603 0.0 0
M  V30 13 C -6.7748 -2.0603 0.0 0
M  V30 14 C 6.1446 1.0059 0.0 0
M  V30 15 C 6.0961 2.5572 0.0 0
M  V30 16 C 7.3444 3.3449 0.0 0
M  V30 17 C 7.2959 4.8963 0.0 0
M  V30 18 C 8.5927 2.6178 0.0 0
M  V30 END ATOM
M  V30 BEGIN BOND
M  V30 1 2 1 2
M  V30 2 1 2 3
M  V30 3 1 2 4
M  V30 4 1 3 5
M  V30 5 1 4 6
M  V30 6 1 5 7
M  V30 7 1 6 8
M  V30 8 2 7 9
M  V30 9 1 8 10
M  V30 10 1 9 11
M  V30 11 1 9 12
M  V30 12 1 10 13
M  V30 13 1 11 14
M  V30 14 1 14 15
M  V30 15 2 15 16
M  V30 16 1 16 17
M  V30 17 1 16 18
M  V30 END BOND
M  V30 END CTAB
M  END
>  <Molecule Name>
neryl hexanoate

>  <Molecule Name 2>
neryl hexanoate

>  <Database>
Essential Oil Database

>  <InChI>
InChI=1S/C16H28O2/c1-5-6-7-11-16(17)18-13-12-15(4)10-8-9-14(2)3/h9,12H,5-8,10-11,13H2,1-4H3/b15-12-

>  <InChI-Key>
ARVSCQUZFFSNKF-QINSGFPZSA-N

>  <Smiles>
CCCCCC(OC/C=C(/C)\CCC=C(C)C)=O

>  <Molecular Formula>
C16H28O2

$$$$
(z)-3-hexenyl hexanoate
Actelion Java MolfileCreator 2.0

  0  0  0  0  0  0              0 V3000
M  V30 BEGIN CTAB
M  V30 COUNTS 14 13 0 0 0
M  V30 BEGIN ATOM
M  V30 1 O 0.0 0.0 0.0 0
M  V30 2 C -0.0479 1.5343 0.0 0
M  V30 3 O 1.1866 2.3134 0.0 0
M  V30 4 C -1.3784 2.3134 0.0 0
M  V30 5 C 2.4213 1.5942 0.0 0
M  V30 6 C -2.709 1.5942 0.0 0
M  V30 7 C 3.6559 2.3733 0.0 0
M  V30 8 C -4.0395 2.3733 0.0 0
M  V30 9 C 4.8905 1.6541 0.0 0
M  V30 10 C -5.37 1.6541 0.0 0
M  V30 11 C 6.1252 2.4333 0.0 0
M  V30 12 C -6.7005 2.4333 0.0 0
M  V30 13 C 6.0772 3.9676 0.0 0
M  V30 14 C 4.7467 4.7467 0.0 0
M  V30 END ATOM
M  V30 BEGIN BOND
M  V30 1 2 1 2
M  V30 2 1 2 3
M  V30 3 1 2 4
M  V30 4 1 3 5
M  V30 5 1 4 6
M  V30 6 1 5 7
M  V30 7 1 6 8
M  V30 8 1 7 9
M  V30 9 1 8 10
M  V30 10 2 9 11
M  V30 11 1 10 12
M  V30 12 1 11 13
M  V30 13 1 13 14
M  V30 END BOND
M  V30 END CTAB
M  END
>  <Molecule Name>
(z)-3-hexenyl hexanoate

>  <Molecule Name 2>
(z)-3-hexenyl hexanoate

>  <Database>
Essential Oil Database

>  <InChI>
InChI=1S/C12H22O2/c1-3-5-7-9-11-14-12(13)10-8-6-4-2/h5,7H,3-4,6,8-11H2,1-2H3/b7-5-

>  <InChI-Key>
RGACQXBDYBCJCY-ALCCZGGFSA-N

>  <Smiles>
CCCCCC(OCC/C=C\CC)=O

>  <Molecular Formula>
C12H22O2

$$$$
(z)-2-decenal
Actelion Java MolfileCreator 2.0

  0  0  0  0  0  0              0 V3000
M  V30 BEGIN CTAB
M  V30 COUNTS 11 10 0 0 0
M  V30 BEGIN ATOM
M  V30 1 O 0.0 0.0 0.0 0
M  V30 2 C 1.2874 -0.7086 0.0 0
M  V30 3 C 1.2401 -2.1968 0.0 0
M  V30 4 C 2.5276 -2.9055 0.0 0
M  V30 5 C 3.815 -2.0669 0.0 0
M  V30 6 C 5.1024 -2.7874 0.0 0
M  V30 7 C 6.3898 -1.9488 0.0 0
M  V30 8 C 7.6773 -2.6575 0.0 0
M  V30 9 C 8.9647 -1.8189 0.0 0
M  V30 10 C 10.2521 -2.5512 0.0 0
M  V30 11 C 11.5395 -1.7126 0.0 0
M  V30 END ATOM
M  V30 BEGIN BOND
M  V30 1 2 1 2
M  V30 2 1 2 3
M  V30 3 2 3 4
M  V30 4 1 4 5
M  V30 5 1 5 6
M  V30 6 1 6 7
M  V30 7 1 7 8
M  V30 8 1 8 9
M  V30 9 1 9 10
M  V30 10 1 10 11
M  V30 END BOND
M  V30 END CTAB
M  END
>  <Molecule Name>
(z)-2-decenal

>  <Molecule Name 2>
(z)-2-decenal

>  <Database>
Essential Oil Database

>  <InChI>
InChI=1S/C10H18O/c1-2-3-4-5-6-7-8-9-10-11/h8-10H,2-7H2,1H3/b9-8-

>  <InChI-Key>
MMFCJPPRCYDLLZ-HJWRWDBZSA-N

>  <Smiles>
CCCCCCC/C=C\C=O

>  <Molecular Formula>
C10H18O

$$$$
butyl octanoate
Actelion Java MolfileCreator 2.0

  0  0  0  0  0  0              0 V3000
M  V30 BEGIN CTAB
M  V30 COUNTS 14 13 0 0 0
M  V30 BEGIN ATOM
M  V30 1 O 0.0 0.0 0.0 0
M  V30 2 C -0.048 1.5383 0.0 0
M  V30 3 O 1.1898 2.3195 0.0 0
M  V30 4 C -1.3821 2.3195 0.0 0
M  V30 5 C 2.4277 1.6104 0.0 0
M  V30 6 C -2.7161 1.6104 0.0 0
M  V30 7 C 3.6656 2.3916 0.0 0
M  V30 8 C -4.0502 2.3916 0.0 0
M  V30 9 C 4.9035 1.6825 0.0 0
M  V30 10 C -5.3843 1.6825 0.0 0
M  V30 11 C 6.1414 2.4638 0.0 0
M  V30 12 C -6.7183 2.4638 0.0 0
M  V30 13 C -8.0524 1.7547 0.0 0
M  V30 14 C -9.3864 2.5359 0.0 0
M  V30 END ATOM
M  V30 BEGIN BOND
M  V30 1 2 1 2
M  V30 2 1 2 3
M  V30 3 1 2 4
M  V30 4 1 3 5
M  V30 5 1 4 6
M  V30 6 1 5 7
M  V30 7 1 6 8
M  V30 8 1 7 9
M  V30 9 1 8 10
M  V30 10 1 9 11
M  V30 11 1 10 12
M  V30 12 1 12 13
M  V30 13 1 13 14
M  V30 END BOND
M  V30 END CTAB
M  END
>  <Molecule Name>
butyl octanoate

>  <Molecule Name 2>
butyl octanoate

>  <Database>
Essential Oil Database

>  <InChI>
InChI=1S/C12H24O2/c1-3-5-7-8-9-10-12(13)14-11-6-4-2/h3-11H2,1-2H3

>  <InChI-Key>
PSXNDMJWRZYVTM-UHFFFAOYSA-N

>  <Smiles>
CCCCCCCC(OCCCC)=O

>  <Molecular Formula>
C12H24O2

$$$$
geranyl linalool
Actelion Java MolfileCreator 2.0

  0  0  0  0  0  0              0 V3000
M  V30 BEGIN CTAB
M  V30 COUNTS 21 20 0 0 0
M  V30 BEGIN ATOM
M  V30 1 O 0.0 0.0 0.0 0
M  V30 2 C 0.7119 1.3393 0.0 0 CFG=2
M  V30 3 C -1.5445 0.0482 0.0 0
M  V30 4 C 1.9547 0.6274 0.0 0
M  V30 5 C 1.4359 2.6787 0.0 0
M  V30 6 C -0.6274 2.1237 0.0 0
M  V30 7 C -2.3288 -1.1945 0.0 0
M  V30 8 C 1.9065 -0.8205 0.0 0
M  V30 9 C 2.8838 2.727 0.0 0
M  V30 10 C -3.8733 -1.1463 0.0 0
M  V30 11 C 3.5958 4.0664 0.0 0
M  V30 12 C -4.6576 -2.3891 0.0 0
M  V30 13 C -4.6576 0.193 0.0 0
M  V30 14 C 5.0437 4.1146 0.0 0
M  V30 15 C -6.2021 -2.3409 0.0 0
M  V30 16 C 5.7557 5.454 0.0 0
M  V30 17 C 5.7557 2.8718 0.0 0
M  V30 18 C -6.9865 -3.5837 0.0 0
M  V30 19 C -8.531 -3.5354 0.0 0
M  V30 20 C -9.3153 -4.7783 0.0 0
M  V30 21 C -9.3153 -2.1961 0.0 0
M  V30 END ATOM
M  V30 BEGIN BOND
M  V30 1 1 1 2
M  V30 2 1 1 3
M  V30 3 1 2 4
M  V30 4 1 2 5 CFG=1
M  V30 5 1 2 6
M  V30 6 1 3 7
M  V30 7 2 4 8
M  V30 8 1 5 9
M  V30 9 2 7 10
M  V30 10 1 9 11
M  V30 11 1 10 12
M  V30 12 1 10 13
M  V30 13 2 11 14
M  V30 14 1 12 15
M  V30 15 1 14 16
M  V30 16 1 14 17
M  V30 17 1 15 18
M  V30 18 2 18 19
M  V30 19 1 19 20
M  V30 20 1 19 21
M  V30 END BOND
M  V30 BEGIN COLLECTION
M  V30 MDLV30/STERAC1 ATOMS=(1 2)
M  V30 END COLLECTION
M  V30 END CTAB
M  END
>  <Molecule Name>
geranyl linalool

>  <Molecule Name 2>
geranyl linalool

>  <Database>
Essential Oil Database

>  <InChI>
InChI=1S/C20H34O/c1-8-20(7,15-10-12-18(4)5)21-16-14-19(6)13-9-11-17(2)3/h8,11-12,14H,1,9-10,13,15-16H2,2-7H3/b19-14+/t20-/m1/s1

>  <InChI-Key>
JUVDBJVBQRAZOR-IAERKFLBSA-N

>  <Smiles>
CC(CCC=C(C)C)(C=C)OC/C=C(\C)/CCC=C(C)C

>  <Molecular Formula>
C20H34O

$$$$
isobornyl acetate
Actelion Java MolfileCreator 2.0

  0  0  0  0  0  0              0 V3000
M  V30 BEGIN CTAB
M  V30 COUNTS 14 15 0 0 0
M  V30 BEGIN ATOM
M  V30 1 O 0.0 0.0 0.0 0
M  V30 2 C 1.2433 0.7725 0.0 0
M  V30 3 O 2.4866 0.0603 0.0 0
M  V30 4 C 1.195 2.3176 0.0 0
M  V30 5 C 3.73 0.8329 0.0 0
M  V30 6 C 4.9733 0.1207 0.0 0 CFG=2
M  V30 7 C 3.6817 2.378 0.0 0
M  V30 8 C 4.5387 1.6658 0.0 0
M  V30 9 C 6.2166 0.9053 0.0 0
M  V30 10 C 4.925 -1.3278 0.0 0
M  V30 11 C 4.925 3.1626 0.0 0 CFG=2
M  V30 12 C 3.054 2.1486 0.0 0
M  V30 13 C 3.054 1.2795 0.0 0
M  V30 14 C 6.1683 2.4504 0.0 0
M  V30 END ATOM
M  V30 BEGIN BOND
M  V30 1 2 1 2
M  V30 2 1 2 3
M  V30 3 1 2 4
M  V30 4 1 3 5
M  V30 5 1 5 6
M  V30 6 1 5 7
M  V30 7 1 6 8
M  V30 8 1 6 9
M  V30 9 1 6 10 CFG=1
M  V30 10 1 11 7 CFG=1
M  V30 11 1 8 12
M  V30 12 1 8 13
M  V30 13 1 9 14
M  V30 14 1 8 11
M  V30 15 1 11 14
M  V30 END BOND
M  V30 BEGIN COLLECTION
M  V30 MDLV30/STEABS ATOMS=(2 6 11)
M  V30 END COLLECTION
M  V30 END CTAB
M  END
>  <Molecule Name>
isobornyl acetate

>  <Molecule Name 2>
isobornyl acetate

>  <Database>
Essential Oil Database

>  <InChI>
InChI=1S/C12H20O2/c1-8(13)14-10-7-9-5-6-12(10,4)11(9,2)3/h9-10H,5-7H2,1-4H3/t9-,10?,12-/m1/s1

>  <InChI-Key>
KGEKLUUHTZCSIP-UPCOPKIUSA-N

>  <Smiles>
CC(C)([C@H](CC1)C2)[C@@]1(C)C2OC(C)=O

>  <Molecular Formula>
C12H20O2

$$$$
ethyl hydroquinone
Actelion Java MolfileCreator 2.0

  0  0  0  0  0  0              0 V3000
M  V30 BEGIN CTAB
M  V30 COUNTS 12 12 0 0 0
M  V30 BEGIN ATOM
M  V30 1 O 0.0 0.0 0.0 0
M  V30 2 C -0.0489 -1.4678 0.0 0
M  V30 3 C -1.3577 0.7828 0.0 0
M  V30 4 C 1.2109 -2.1895 0.0 0
M  V30 5 C -1.4067 -2.1895 0.0 0
M  V30 6 C -1.4067 2.3485 0.0 0
M  V30 7 C 1.162 -3.6574 0.0 0
M  V30 8 C -1.4556 -3.6574 0.0 0
M  V30 9 C -0.1957 -4.3791 0.0 0
M  V30 10 O -0.2446 -5.847 0.0 0
M  V30 11 C -1.6024 -6.5809 0.0 0
M  V30 12 C -1.6513 -8.0488 0.0 0
M  V30 END ATOM
M  V30 BEGIN BOND
M  V30 1 1 1 2
M  V30 2 1 1 3
M  V30 3 2 2 4
M  V30 4 1 2 5
M  V30 5 1 3 6
M  V30 6 1 4 7
M  V30 7 2 5 8
M  V30 8 2 7 9
M  V30 9 1 9 10
M  V30 10 1 10 11
M  V30 11 1 11 12
M  V30 12 1 8 9
M  V30 END BOND
M  V30 END CTAB
M  END
>  <Molecule Name>
ethyl hydroquinone

>  <Molecule Name 2>
ethyl hydroquinone

>  <Database>
Essential Oil Database

>  <InChI>
InChI=1S/C10H14O2/c1-3-11-9-5-7-10(8-6-9)12-4-2/h5-8H,3-4H2,1-2H3

>  <InChI-Key>
VWGNFIQXBYRDCH-UHFFFAOYSA-N

>  <Smiles>
CCOc(cc1)ccc1OCC

>  <Molecular Formula>
C10H14O2

$$$$
2,5-dimethylstyrene
Actelion Java MolfileCreator 2.0

  0  0  0  0  0  0              0 V3000
M  V30 BEGIN CTAB
M  V30 COUNTS 10 10 0 0 0
M  V30 BEGIN ATOM
M  V30 1 C 0.0 0.0 0.0 0
M  V30 2 C -1.3509 -0.718 0.0 0
M  V30 3 C 1.2535 -0.718 0.0 0
M  V30 4 C -0.0486 1.5578 0.0 0
M  V30 5 C -1.3996 -2.1785 0.0 0
M  V30 6 C -2.7018 0.0608 0.0 0
M  V30 7 C 1.2048 -2.1785 0.0 0
M  V30 8 C -1.3996 2.3489 0.0 0
M  V30 9 C -0.146 -2.8966 0.0 0
M  V30 10 C 2.4584 -2.8966 0.0 0
M  V30 END ATOM
M  V30 BEGIN BOND
M  V30 1 2 1 2
M  V30 2 1 1 3
M  V30 3 1 1 4
M  V30 4 1 2 5
M  V30 5 1 2 6
M  V30 6 2 3 7
M  V30 7 2 4 8
M  V30 8 2 5 9
M  V30 9 1 7 10
M  V30 10 1 7 9
M  V30 END BOND
M  V30 END CTAB
M  END
>  <Molecule Name>
2,5-dimethylstyrene

>  <Molecule Name 2>
2,5-dimethylstyrene

>  <Database>
Essential Oil Database

>  <InChI>
InChI=1S/C10H12/c1-4-10-7-8(2)5-6-9(10)3/h4-7H,1H2,2-3H3

>  <InChI-Key>
DBWWINQJTZYDFK-UHFFFAOYSA-N

>  <Smiles>
Cc1cc(C=C)c(C)cc1

>  <Molecular Formula>
C10H12

$$$$
2-hexylfuran
Actelion Java MolfileCreator 2.0

  0  0  0  0  0  0              0 V3000
M  V30 BEGIN CTAB
M  V30 COUNTS 11 11 0 0 0
M  V30 BEGIN ATOM
M  V30 1 O 0.0 0.0 0.0 0
M  V30 2 C 0.1077 -1.4601 0.0 0
M  V30 3 C -1.532 0.371 0.0 0
M  V30 4 C -1.3285 -2.0347 0.0 0
M  V30 5 C 1.3764 -2.1902 0.0 0
M  V30 6 C -2.3339 -0.8976 0.0 0
M  V30 7 C 2.6451 -1.3883 0.0 0
M  V30 8 C 3.9138 -2.1184 0.0 0
M  V30 9 C 5.1825 -1.3165 0.0 0
M  V30 10 C 6.4512 -2.0466 0.0 0
M  V30 11 C 7.7198 -1.2447 0.0 0
M  V30 END ATOM
M  V30 BEGIN BOND
M  V30 1 1 1 2
M  V30 2 1 1 3
M  V30 3 2 2 4
M  V30 4 1 2 5
M  V30 5 2 3 6
M  V30 6 1 5 7
M  V30 7 1 7 8
M  V30 8 1 8 9
M  V30 9 1 9 10
M  V30 10 1 10 11
M  V30 11 1 4 6
M  V30 END BOND
M  V30 END CTAB
M  END
>  <Molecule Name>
2-hexylfuran

>  <Molecule Name 2>
2-hexylfuran

>  <Database>
Essential Oil Database

>  <InChI>
InChI=1S/C10H16O/c1-2-3-4-5-7-10-8-6-9-11-10/h6,8-9H,2-5,7H2,1H3

>  <InChI-Key>
XBLCAKKYMZVLPU-UHFFFAOYSA-N

>  <Smiles>
CCCCCCc1ccc[o]1

>  <Molecular Formula>
C10H16O

$$$$
aristolone
Actelion Java MolfileCreator 2.0

  0  0  0  0  0  0              0 V3000
M  V30 BEGIN CTAB
M  V30 COUNTS 16 18 0 0 0
M  V30 BEGIN ATOM
M  V30 1 O 0.0 0.0 0.0 0
M  V30 2 C -0.9471 -1.1657 0.0 0
M  V30 3 C -2.5015 -0.935 0.0 0
M  V30 4 C -0.3885 -2.5137 0.0 0 CFG=1
M  V30 5 C -3.4487 -2.1008 0.0 0
M  V30 6 C 0.17 -3.8616 0.0 0
M  V30 7 C -1.3357 -3.6794 0.0 0 CFG=1
M  V30 8 C -2.8901 -3.4487 0.0 0 CFG=1
M  V30 9 C -5.0031 -1.8701 0.0 0
M  V30 10 C 0.6071 -5.2581 0.0 0
M  V30 11 C 1.6393 -3.8616 0.0 0
M  V30 12 C -3.8373 -4.6145 0.0 0 CFG=1
M  V30 13 C -2.3315 -4.7966 0.0 0
M  V30 14 C -5.9503 -3.0358 0.0 0
M  V30 15 C -5.3917 -4.3838 0.0 0
M  V30 16 C -3.2787 -5.9624 0.0 0
M  V30 END ATOM
M  V30 BEGIN BOND
M  V30 1 2 1 2
M  V30 2 1 2 3
M  V30 3 1 2 4
M  V30 4 2 3 5
M  V30 5 1 4 6 CFG=1
M  V30 6 1 4 7
M  V30 7 1 5 8
M  V30 8 1 5 9
M  V30 9 1 6 10
M  V30 10 1 6 11
M  V30 11 1 8 12
M  V30 12 1 8 13 CFG=3
M  V30 13 1 9 14
M  V30 14 1 12 15
M  V30 15 1 12 16 CFG=3
M  V30 16 1 7 6 CFG=1
M  V30 17 1 7 8
M  V30 18 1 14 15
M  V30 END BOND
M  V30 BEGIN COLLECTION
M  V30 MDLV30/STEABS ATOMS=(4 4 7 8 12)
M  V30 END COLLECTION
M  V30 END CTAB
M  END
>  <Molecule Name>
aristolone

>  <Molecule Name 2>
aristolone

>  <Database>
Essential Oil Database

>  <InChI>
InChI=1S/C15H22O/c1-9-6-5-7-10-8-11(16)12-13(14(12,2)3)15(9,10)4/h8-9,12-13H,5-7H2,1-4H3/t9-,12-,13+,15+/m1/s1

>  <InChI-Key>
UGVIZCBJCSXBCJ-JWFUOXDNSA-N

>  <Smiles>
C[C@H](CCC1)[C@](C)([C@@H]2C(C)(C)[C@@H]22)C1=CC2=O

>  <Molecular Formula>
C15H22O

$$$$
(e,e)-2,4-heptadienal
Actelion Java MolfileCreator 2.0

  0  0  0  0  0  0              0 V3000
M  V30 BEGIN CTAB
M  V30 COUNTS 8 7 0 0 0
M  V30 BEGIN ATOM
M  V30 1 O 0.0 0.0 0.0 0
M  V30 2 C 0.7147 -1.2478 0.0 0
M  V30 3 C -0.0605 -2.4957 0.0 0
M  V30 4 C -1.6113 -2.4472 0.0 0
M  V30 5 C -2.3866 -3.6951 0.0 0
M  V30 6 C -3.9374 -3.6466 0.0 0
M  V30 7 C -4.7128 -4.8945 0.0 0
M  V30 8 C -6.2635 -4.846 0.0 0
M  V30 END ATOM
M  V30 BEGIN BOND
M  V30 1 2 1 2
M  V30 2 1 2 3
M  V30 3 2 3 4
M  V30 4 1 4 5
M  V30 5 2 5 6
M  V30 6 1 6 7
M  V30 7 1 7 8
M  V30 END BOND
M  V30 END CTAB
M  END
>  <Molecule Name>
(e,e)-2,4-heptadienal

>  <Molecule Name 2>
(e,e)-2,4-heptadienal

>  <Database>
Essential Oil Database

>  <InChI>
InChI=1S/C7H10O/c1-2-3-4-5-6-7-8/h3-7H,2H2,1H3/b4-3+,6-5+

>  <InChI-Key>
SATICYYAWWYRAM-VNKDHWASSA-N

>  <Smiles>
CC/C=C/C=C/C=O

>  <Molecular Formula>
C7H10O

$$$$
alismol
Actelion Java MolfileCreator 2.0

  0  0  0  0  0  0              0 V3000
M  V30 BEGIN CTAB
M  V30 COUNTS 16 17 0 0 0
M  V30 BEGIN ATOM
M  V30 1 O 0.0 0.0 0.0 0
M  V30 2 C -0.3531 1.5222 0.0 0 CFG=1
M  V30 3 C 1.0351 2.0459 0.0 0
M  V30 4 C -1.2787 2.7888 0.0 0
M  V30 5 C -1.4979 0.5601 0.0 0
M  V30 6 C 2.1555 1.1691 0.0 0
M  V30 7 C 0.9864 3.6047 0.0 0 CFG=2
M  V30 8 C -0.4505 4.0553 0.0 0
M  V30 9 C 3.5803 1.5588 0.0 0
M  V30 10 C 2.1068 4.5789 0.0 0
M  V30 11 C 4.4572 0.4384 0.0 0
M  V30 12 C 4.2014 2.9592 0.0 0
M  V30 13 C 1.7171 6.1012 0.0 0
M  V30 14 C 3.5316 4.2867 0.0 0
M  V30 15 C 5.9064 0.7185 0.0 0
M  V30 16 C 3.8483 -0.9133 0.0 0
M  V30 END ATOM
M  V30 BEGIN BOND
M  V30 1 1 2 1 CFG=3
M  V30 2 1 2 3
M  V30 3 1 2 4
M  V30 4 1 2 5
M  V30 5 1 3 6
M  V30 6 1 3 7
M  V30 7 1 4 8
M  V30 8 2 6 9
M  V30 9 1 7 10 CFG=3
M  V30 10 1 9 11
M  V30 11 1 9 12
M  V30 12 2 10 13
M  V30 13 1 10 14
M  V30 14 1 11 15
M  V30 15 1 11 16
M  V30 16 1 7 8
M  V30 17 1 12 14
M  V30 END BOND
M  V30 BEGIN COLLECTION
M  V30 MDLV30/STEABS ATOMS=(2 2 7)
M  V30 END COLLECTION
M  V30 END CTAB
M  END
>  <Molecule Name>
alismol

>  <Molecule Name 2>
alismol

>  <Database>
Essential Oil Database

>  <InChI>
InChI=1S/C15H24O/c1-10(2)12-6-5-11(3)13-7-8-15(4,16)14(13)9-12/h9-10,13-14,16H,3,5-8H2,1-2,4H3/t13-,14?,15-/m1/s1

>  <InChI-Key>
BUPJOLXWQXEJSQ-GIJJTGMTSA-N

>  <Smiles>
CC(C)C(CCC([C@H]1CC2)=C)=CC1[C@]2(C)O

>  <Molecular Formula>
C15H24O

$$$$
3-octen-2-one
Actelion Java MolfileCreator 2.0

  0  0  0  0  0  0              0 V3000
M  V30 BEGIN CTAB
M  V30 COUNTS 9 8 0 0 0
M  V30 BEGIN ATOM
M  V30 1 O 0.0 0.0 0.0 0
M  V30 2 C 0.7305 -1.2754 0.0 0
M  V30 3 C -0.0619 -2.5508 0.0 0
M  V30 4 C 2.2165 -1.2258 0.0 0
M  V30 5 C -1.6469 -2.5013 0.0 0
M  V30 6 C -2.4517 -3.7767 0.0 0
M  V30 7 C -1.7212 -5.0521 0.0 0
M  V30 8 C -2.526 -6.3276 0.0 0
M  V30 9 C -1.7955 -7.603 0.0 0
M  V30 END ATOM
M  V30 BEGIN BOND
M  V30 1 2 1 2
M  V30 2 1 2 3
M  V30 3 1 2 4
M  V30 4 2 3 5 CFG=2
M  V30 5 1 5 6
M  V30 6 1 6 7
M  V30 7 1 7 8
M  V30 8 1 8 9
M  V30 END BOND
M  V30 END CTAB
M  END
>  <Molecule Name>
3-octen-2-one

>  <Molecule Name 2>
3-octen-2-one

>  <Database>
Essential Oil Database

>  <InChI>
InChI=1S/C8H14O/c1-3-4-5-6-7-8(2)9/h6-7H,3-5H2,1-2H3

>  <InChI-Key>
ZCFOBLITZWHNNC-UHFFFAOYSA-N

>  <Smiles>
CCCCC=CC(C)=O

>  <Molecular Formula>
C8H14O

$$$$
isopropyl dodecanoate
Actelion Java MolfileCreator 2.0

  0  0  0  0  0  0              0 V3000
M  V30 BEGIN CTAB
M  V30 COUNTS 17 16 0 0 0
M  V30 BEGIN ATOM
M  V30 1 O 0.0 0.0 0.0 0
M  V30 2 C -0.0476 1.5256 0.0 0
M  V30 3 O 1.1799 2.3003 0.0 0
M  V30 4 C -1.3706 2.3003 0.0 0
M  V30 5 C 2.4076 1.5852 0.0 0
M  V30 6 C -2.6936 1.5852 0.0 0
M  V30 7 C 3.6352 2.3599 0.0 0
M  V30 8 C 2.3599 0.1549 0.0 0
M  V30 9 C -4.0166 2.3599 0.0 0
M  V30 10 C -5.3396 1.6448 0.0 0
M  V30 11 C -6.6626 2.4195 0.0 0
M  V30 12 C -7.9856 1.7044 0.0 0
M  V30 13 C -9.3086 2.4791 0.0 0
M  V30 14 C -10.6317 1.764 0.0 0
M  V30 15 C -11.9547 2.5387 0.0 0
M  V30 16 C -13.2777 1.8235 0.0 0
M  V30 17 C -14.6007 2.5983 0.0 0
M  V30 END ATOM
M  V30 BEGIN BOND
M  V30 1 2 1 2
M  V30 2 1 2 3
M  V30 3 1 2 4
M  V30 4 1 3 5
M  V30 5 1 4 6
M  V30 6 1 5 7
M  V30 7 1 5 8
M  V30 8 1 6 9
M  V30 9 1 9 10
M  V30 10 1 10 11
M  V30 11 1 11 12
M  V30 12 1 12 13
M  V30 13 1 13 14
M  V30 14 1 14 15
M  V30 15 1 15 16
M  V30 16 1 16 17
M  V30 END BOND
M  V30 END CTAB
M  END
>  <Molecule Name>
isopropyl dodecanoate

>  <Molecule Name 2>
isopropyl dodecanoate

>  <Database>
Essential Oil Database

>  <InChI>
InChI=1S/C15H30O2/c1-4-5-6-7-8-9-10-11-12-13-15(16)17-14(2)3/h14H,4-13H2,1-3H3

>  <InChI-Key>
UJPPXNXOEVDSRW-UHFFFAOYSA-N

>  <Smiles>
CCCCCCCCCCCC(OC(C)C)=O

>  <Molecular Formula>
C15H30O2

$$$$
(z)-2-nonenal
Actelion Java MolfileCreator 2.0

  0  0  0  0  0  0              0 V3000
M  V30 BEGIN CTAB
M  V30 COUNTS 10 9 0 0 0
M  V30 BEGIN ATOM
M  V30 1 O 0.0 0.0 0.0 0
M  V30 2 C 1.2914 -0.7108 0.0 0
M  V30 3 C 1.244 -2.2037 0.0 0
M  V30 4 C 2.5355 -2.9146 0.0 0
M  V30 5 C 3.8269 -2.0734 0.0 0
M  V30 6 C 5.1184 -2.7843 0.0 0
M  V30 7 C 6.4099 -1.9431 0.0 0
M  V30 8 C 7.7013 -2.6777 0.0 0
M  V30 9 C 8.9928 -1.8364 0.0 0
M  V30 10 C 10.2842 -2.5473 0.0 0
M  V30 END ATOM
M  V30 BEGIN BOND
M  V30 1 2 1 2
M  V30 2 1 2 3
M  V30 3 2 3 4
M  V30 4 1 4 5
M  V30 5 1 5 6
M  V30 6 1 6 7
M  V30 7 1 7 8
M  V30 8 1 8 9
M  V30 9 1 9 10
M  V30 END BOND
M  V30 END CTAB
M  END
>  <Molecule Name>
(z)-2-nonenal

>  <Molecule Name 2>
(z)-2-nonenal

>  <Database>
Essential Oil Database

>  <InChI>
InChI=1S/C9H16O/c1-2-3-4-5-6-7-8-9-10/h7-9H,2-6H2,1H3/b8-7-

>  <InChI-Key>
BSAIUMLZVGUGKX-FPLPWBNLSA-N

>  <Smiles>
CCCCCC/C=C\C=O

>  <Molecular Formula>
C9H16O

$$$$
2-hexanone
Actelion Java MolfileCreator 2.0

  0  0  0  0  0  0              0 V3000
M  V30 BEGIN CTAB
M  V30 COUNTS 7 6 0 0 0
M  V30 BEGIN ATOM
M  V30 1 O 0.0 0.0 0.0 0
M  V30 2 C -0.0471 -1.4841 0.0 0
M  V30 3 C 1.2368 -2.1791 0.0 0
M  V30 4 C -1.4252 -2.1791 0.0 0
M  V30 5 C 2.5207 -1.3545 0.0 0
M  V30 6 C 3.8046 -2.0495 0.0 0
M  V30 7 C 5.0885 -1.225 0.0 0
M  V30 END ATOM
M  V30 BEGIN BOND
M  V30 1 2 1 2
M  V30 2 1 2 3
M  V30 3 1 2 4
M  V30 4 1 3 5
M  V30 5 1 5 6
M  V30 6 1 6 7
M  V30 END BOND
M  V30 END CTAB
M  END
>  <Molecule Name>
2-hexanone

>  <Molecule Name 2>
2-hexanone

>  <Database>
Essential Oil Database

>  <InChI>
InChI=1S/C6H12O/c1-3-4-5-6(2)7/h3-5H2,1-2H3

>  <InChI-Key>
QQZOPKMRPOGIEB-UHFFFAOYSA-N

>  <Smiles>
CCCCC(C)=O

>  <Molecular Formula>
C6H12O

$$$$
4-hydroxy-2-methyl acetophenone
Actelion Java MolfileCreator 2.0

  0  0  0  0  0  0              0 V3000
M  V30 BEGIN CTAB
M  V30 COUNTS 11 11 0 0 0
M  V30 BEGIN ATOM
M  V30 1 O 0.0 0.0 0.0 0
M  V30 2 C -1.3551 -0.7203 0.0 0
M  V30 3 C -1.404 -2.1853 0.0 0
M  V30 4 C -2.7103 0.0732 0.0 0
M  V30 5 C -0.1465 -2.9057 0.0 0
M  V30 6 C -2.7591 -2.9057 0.0 0
M  V30 7 C -2.7591 1.6359 0.0 0
M  V30 8 C -0.1953 -4.3707 0.0 0
M  V30 9 C -2.808 -4.3707 0.0 0
M  V30 10 C -1.5505 -5.091 0.0 0
M  V30 11 O -1.5993 -6.5561 0.0 0
M  V30 END ATOM
M  V30 BEGIN BOND
M  V30 1 2 1 2
M  V30 2 1 2 3
M  V30 3 1 2 4
M  V30 4 2 3 5
M  V30 5 1 3 6
M  V30 6 1 4 7
M  V30 7 1 5 8
M  V30 8 2 6 9
M  V30 9 2 8 10
M  V30 10 1 10 11
M  V30 11 1 9 10
M  V30 END BOND
M  V30 END CTAB
M  END
>  <Molecule Name>
4-hydroxy-2-methyl acetophenone

>  <Molecule Name 2>
4-hydroxy-2-methyl acetophenone

>  <Database>
Essential Oil Database

>  <InChI>
InChI=1S/C9H10O2/c1-2-9(11)7-3-5-8(10)6-4-7/h3-6,10H,2H2,1H3

>  <InChI-Key>
RARSHUDCJQSEFJ-UHFFFAOYSA-N

>  <Smiles>
CCC(c(cc1)ccc1O)=O

>  <Molecular Formula>
C9H10O2

$$$$
amorpha-4,11-diene
Actelion Java MolfileCreator 2.0

  0  0  0  0  0  0              0 V3000
M  V30 BEGIN CTAB
M  V30 COUNTS 15 16 0 0 0
M  V30 BEGIN ATOM
M  V30 1 C 0.0 0.0 0.0 0
M  V30 2 C -1.3331 0.7686 0.0 0
M  V30 3 C -0.048 -1.4412 0.0 0
M  V30 4 C 1.237 0.7686 0.0 0
M  V30 5 C -2.6662 0.06 0.0 0 CFG=2
M  V30 6 C -1.3811 -2.1618 0.0 0
M  V30 7 C -3.9993 0.8407 0.0 0 CFG=2
M  V30 8 C -2.7142 -1.3811 0.0 0 CFG=1
M  V30 9 C -4.0474 2.3779 0.0 0
M  V30 10 C -5.3324 0.1321 0.0 0
M  V30 11 C -4.0474 -2.1017 0.0 0 CFG=1
M  V30 12 C -5.3805 3.1586 0.0 0
M  V30 13 C -2.8103 3.1586 0.0 0
M  V30 14 C -5.3805 -1.3091 0.0 0
M  V30 15 C -4.0954 -3.5429 0.0 0
M  V30 END ATOM
M  V30 BEGIN BOND
M  V30 1 2 1 2
M  V30 2 1 1 3
M  V30 3 1 1 4
M  V30 4 1 5 2 CFG=1
M  V30 5 1 3 6
M  V30 6 1 5 7
M  V30 7 1 5 8
M  V30 8 1 7 9 CFG=1
M  V30 9 1 7 10
M  V30 10 1 8 11
M  V30 11 2 9 12
M  V30 12 1 9 13
M  V30 13 1 10 14
M  V30 14 1 11 15 CFG=3
M  V30 15 1 8 6 CFG=1
M  V30 16 1 11 14
M  V30 END BOND
M  V30 BEGIN COLLECTION
M  V30 MDLV30/STEABS ATOMS=(4 5 7 8 11)
M  V30 END COLLECTION
M  V30 END CTAB
M  END
>  <Molecule Name>
amorpha-4,11-diene

>  <Molecule Name 2>
amorpha-4,11-diene

>  <Database>
Essential Oil Database

>  <InChI>
InChI=1S/C15H24/c1-10(2)13-8-6-12(4)14-7-5-11(3)9-15(13)14/h9,12-15H,1,5-8H2,2-4H3/t12-,13+,14+,15-/m1/s1

>  <InChI-Key>
HMTAHNDPLDKYJT-CBBWQLFWSA-N

>  <Smiles>
C[C@H](CC[C@H]1C(C)=C)[C@H]2[C@@H]1C=C(C)CC2

>  <Molecular Formula>
C15H24

$$$$
p-cresyl methyl ether
Actelion Java MolfileCreator 2.0

  0  0  0  0  0  0              0 V3000
M  V30 BEGIN CTAB
M  V30 COUNTS 9 9 0 0 0
M  V30 BEGIN ATOM
M  V30 1 O 0.0 0.0 0.0 0
M  V30 2 C -0.0469 -1.4784 0.0 0
M  V30 3 C -1.3728 0.8213 0.0 0
M  V30 4 C 1.232 -2.1706 0.0 0
M  V30 5 C -1.4197 -2.1706 0.0 0
M  V30 6 C 1.185 -3.6491 0.0 0
M  V30 7 C -1.4666 -3.6491 0.0 0
M  V30 8 C -0.1877 -4.3413 0.0 0
M  V30 9 C -0.2346 -5.8198 0.0 0
M  V30 END ATOM
M  V30 BEGIN BOND
M  V30 1 1 1 2
M  V30 2 1 1 3
M  V30 3 2 2 4
M  V30 4 1 2 5
M  V30 5 1 4 6
M  V30 6 2 5 7
M  V30 7 2 6 8
M  V30 8 1 8 9
M  V30 9 1 7 8
M  V30 END BOND
M  V30 END CTAB
M  END
>  <Molecule Name>
p-cresyl methyl ether

>  <Molecule Name 2>
p-cresyl methyl ether

>  <Database>
Essential Oil Database

>  <InChI>
InChI=1S/C8H10O/c1-7-3-5-8(9-2)6-4-7/h3-6H,1-2H3

>  <InChI-Key>
CHLICZRVGGXEOD-UHFFFAOYSA-N

>  <Smiles>
Cc(cc1)ccc1OC

>  <Molecular Formula>
C8H10O

$$$$
(e)-2-decanal
Actelion Java MolfileCreator 2.0

  0  0  0  0  0  0              0 V3000
M  V30 BEGIN CTAB
M  V30 COUNTS 11 10 0 0 0
M  V30 BEGIN ATOM
M  V30 1 O 0.0 0.0 0.0 0
M  V30 2 C -0.0468 -1.4772 0.0 0
M  V30 3 C 1.231 -2.2041 0.0 0
M  V30 4 C -1.4186 -2.2041 0.0 0
M  V30 5 C 2.5089 -1.3717 0.0 0
M  V30 6 C 3.7868 -2.0868 0.0 0
M  V30 7 C 5.0647 -1.2544 0.0 0
M  V30 8 C 6.3426 -1.9813 0.0 0
M  V30 9 C 7.6205 -1.1489 0.0 0
M  V30 10 C 8.8985 -1.8641 0.0 0
M  V30 11 C 10.1764 -1.0317 0.0 0
M  V30 END ATOM
M  V30 BEGIN BOND
M  V30 1 2 1 2
M  V30 2 1 2 3
M  V30 3 1 2 4
M  V30 4 1 3 5
M  V30 5 1 5 6
M  V30 6 1 6 7
M  V30 7 1 7 8
M  V30 8 1 8 9
M  V30 9 1 9 10
M  V30 10 1 10 11
M  V30 END BOND
M  V30 END CTAB
M  END
>  <Molecule Name>
(e)-2-decanal

>  <Molecule Name 2>
(e)-2-decanal

>  <Database>
Essential Oil Database

>  <InChI>
InChI=1S/C10H20O/c1-3-4-5-6-7-8-9-10(2)11/h3-9H2,1-2H3

>  <InChI-Key>
ZAJNGDIORYACQU-UHFFFAOYSA-N

>  <Smiles>
CCCCCCCCC(C)=O

>  <Molecular Formula>
C10H20O

$$$$
coumarin
Actelion Java MolfileCreator 2.0

  0  0  0  0  0  0              0 V3000
M  V30 BEGIN CTAB
M  V30 COUNTS 11 12 0 0 0
M  V30 BEGIN ATOM
M  V30 1 O 0.0 0.0 0.0 0
M  V30 2 C 1.2877 -0.7088 0.0 0
M  V30 3 O 2.5754 0.1299 0.0 0
M  V30 4 C 1.2404 -2.1974 0.0 0
M  V30 5 C 3.8631 -0.5788 0.0 0
M  V30 6 C 2.5281 -2.9062 0.0 0
M  V30 7 C 3.8159 -2.0674 0.0 0
M  V30 8 C 5.1508 0.2599 0.0 0
M  V30 9 C 5.1036 -2.7999 0.0 0
M  V30 10 C 6.4386 -0.4489 0.0 0
M  V30 11 C 6.3913 -1.9611 0.0 0
M  V30 END ATOM
M  V30 BEGIN BOND
M  V30 1 2 1 2
M  V30 2 1 2 3
M  V30 3 1 2 4
M  V30 4 1 3 5
M  V30 5 2 4 6
M  V30 6 2 5 7
M  V30 7 1 5 8
M  V30 8 1 7 9
M  V30 9 2 8 10
M  V30 10 2 9 11
M  V30 11 1 6 7
M  V30 12 1 10 11
M  V30 END BOND
M  V30 END CTAB
M  END
>  <Molecule Name>
coumarin

>  <Molecule Name 2>
coumarin

>  <Database>
Essential Oil Database

>  <InChI>
InChI=1S/C9H6O2/c10-9-6-5-7-3-1-2-4-8(7)11-9/h1-6H

>  <InChI-Key>
ZYGHJZDHTFUPRJ-UHFFFAOYSA-N

>  <Smiles>
O=C1Oc(cccc2)c2C=C1

>  <Molecular Formula>
C9H6O2

$$$$
duraldehyde
Actelion Java MolfileCreator 2.0

  0  0  0  0  0  0              0 V3000
M  V30 BEGIN CTAB
M  V30 COUNTS 12 12 0 0 0
M  V30 BEGIN ATOM
M  V30 1 O 0.0 0.0 0.0 0
M  V30 2 C -1.335 0.7697 0.0 0
M  V30 3 C -2.67 0.0601 0.0 0
M  V30 4 C -2.7181 -1.3831 0.0 0
M  V30 5 C -4.005 0.8298 0.0 0
M  V30 6 C -4.0531 -2.0927 0.0 0
M  V30 7 C -1.4793 -2.0927 0.0 0
M  V30 8 C -5.3401 0.1202 0.0 0
M  V30 9 C -4.0531 2.3693 0.0 0
M  V30 10 C -5.3882 -1.323 0.0 0
M  V30 11 C -4.1013 -3.536 0.0 0
M  V30 12 C -6.6751 0.89 0.0 0
M  V30 END ATOM
M  V30 BEGIN BOND
M  V30 1 2 1 2
M  V30 2 1 2 3
M  V30 3 2 3 4
M  V30 4 1 3 5
M  V30 5 1 4 6
M  V30 6 1 4 7
M  V30 7 2 5 8
M  V30 8 1 5 9
M  V30 9 2 6 10
M  V30 10 1 6 11
M  V30 11 1 8 12
M  V30 12 1 8 10
M  V30 END BOND
M  V30 END CTAB
M  END
>  <Molecule Name>
duraldehyde

>  <Molecule Name 2>
duraldehyde

>  <Database>
Essential Oil Database

>  <InChI>
InChI=1S/C11H14O/c1-7-5-8(2)10(4)11(6-12)9(7)3/h5-6H,1-4H3

>  <InChI-Key>
RCPYGAYAQAHJMN-UHFFFAOYSA-N

>  <Smiles>
Cc1c(C)c(C=O)c(C)c(C)c1

>  <Molecular Formula>
C11H14O

$$$$
1,2,3-trimethylbenzene
Actelion Java MolfileCreator 2.0

  0  0  0  0  0  0              0 V3000
M  V30 BEGIN CTAB
M  V30 COUNTS 9 9 0 0 0
M  V30 BEGIN ATOM
M  V30 1 C 0.0 0.0 0.0 0
M  V30 2 C -1.3429 0.7743 0.0 0
M  V30 3 C -0.0483 -1.4518 0.0 0
M  V30 4 C 1.2461 0.7743 0.0 0
M  V30 5 C -2.6858 0.0604 0.0 0
M  V30 6 C -1.3913 2.3229 0.0 0
M  V30 7 C -1.3913 -2.1656 0.0 0
M  V30 8 C 1.1977 -2.1656 0.0 0
M  V30 9 C -2.7342 -1.3913 0.0 0
M  V30 END ATOM
M  V30 BEGIN BOND
M  V30 1 2 1 2
M  V30 2 1 1 3
M  V30 3 1 1 4
M  V30 4 1 2 5
M  V30 5 1 2 6
M  V30 6 2 3 7
M  V30 7 1 3 8
M  V30 8 2 5 9
M  V30 9 1 7 9
M  V30 END BOND
M  V30 END CTAB
M  END
>  <Molecule Name>
1,2,3-trimethylbenzene

>  <Molecule Name 2>
1,2,3-trimethylbenzene

>  <Database>
Essential Oil Database

>  <InChI>
InChI=1S/C9H12/c1-7-5-4-6-8(2)9(7)3/h4-6H,1-3H3

>  <InChI-Key>
FYGHSUNMUKGBRK-UHFFFAOYSA-N

>  <Smiles>
Cc1cccc(C)c1C

>  <Molecular Formula>
C9H12

$$$$
eucarvone
Actelion Java MolfileCreator 2.0

  0  0  0  0  0  0              0 V3000
M  V30 BEGIN CTAB
M  V30 COUNTS 11 11 0 0 0
M  V30 BEGIN ATOM
M  V30 1 O 0.0 0.0 0.0 0
M  V30 2 C -1.4894 0.3812 0.0 0
M  V30 3 C -2.4426 -0.7149 0.0 0
M  V30 4 C -1.8707 1.8707 0.0 0
M  V30 5 C -3.9678 -0.6672 0.0 0
M  V30 6 C -1.835 -1.9899 0.0 0
M  V30 7 C -3.241 2.5737 0.0 0
M  V30 8 C -4.9211 0.5242 0.0 0
M  V30 9 C -4.6113 1.966 0.0 0
M  V30 10 C -4.1942 3.7653 0.0 0
M  V30 11 C -2.3831 3.7653 0.0 0
M  V30 END ATOM
M  V30 BEGIN BOND
M  V30 1 2 1 2
M  V30 2 1 2 3
M  V30 3 1 2 4
M  V30 4 2 3 5
M  V30 5 1 3 6
M  V30 6 1 4 7
M  V30 7 1 5 8
M  V30 8 1 7 9
M  V30 9 1 7 10
M  V30 10 1 7 11
M  V30 11 2 8 9
M  V30 END BOND
M  V30 END CTAB
M  END
>  <Molecule Name>
eucarvone

>  <Molecule Name 2>
eucarvone

>  <Database>
Essential Oil Database

>  <InChI>
InChI=1S/C10H14O/c1-8-5-4-6-10(2,3)7-9(8)11/h4-6H,7H2,1-3H3

>  <InChI-Key>
QNGQIURXCUHNAT-UHFFFAOYSA-N

>  <Smiles>
CC(C)(C1)C=CC=C(C)C1=O

>  <Molecular Formula>
C10H14O

$$$$
p-mentha-1(7),4(8)-dien
Actelion Java MolfileCreator 2.0

  0  0  0  0  0  0              0 V3000
M  V30 BEGIN CTAB
M  V30 COUNTS 10 10 0 0 0
M  V30 BEGIN ATOM
M  V30 1 C 0.0 0.0 0.0 0
M  V30 2 C -0.048 -1.4406 0.0 0
M  V30 3 C 1.2365 0.7683 0.0 0
M  V30 4 C -1.3325 0.7683 0.0 0
M  V30 5 C 1.1885 -2.1609 0.0 0
M  V30 6 C -1.3806 -2.1609 0.0 0
M  V30 7 C 1.1885 2.305 0.0 0
M  V30 8 C -1.3806 2.305 0.0 0
M  V30 9 C -0.144 3.0853 0.0 0
M  V30 10 C -0.192 4.622 0.0 0
M  V30 END ATOM
M  V30 BEGIN BOND
M  V30 1 2 1 2
M  V30 2 1 1 3
M  V30 3 1 1 4
M  V30 4 1 2 5
M  V30 5 1 2 6
M  V30 6 1 3 7
M  V30 7 1 4 8
M  V30 8 1 7 9
M  V30 9 2 9 10
M  V30 10 1 8 9
M  V30 END BOND
M  V30 END CTAB
M  END
>  <Molecule Name>
p-mentha-1(7),4(8)-dien

>  <Molecule Name 2>
p-mentha-1(7),4(8)-dien

>  <Database>
Essential Oil Database

>  <InChI>
InChI=1S/C10H16/c1-8(2)10-6-4-9(3)5-7-10/h3-7H2,1-2H3

>  <InChI-Key>
JAFDMBBDFYFVAB-UHFFFAOYSA-N

>  <Smiles>
CC(C)=C(CC1)CCC1=C

>  <Molecular Formula>
C10H16

$$$$
3,3,5-trimethylhept-1,5-dien
Actelion Java MolfileCreator 2.0

  0  0  0  0  0  0              0 V3000
M  V30 BEGIN CTAB
M  V30 COUNTS 10 9 0 0 0
M  V30 BEGIN ATOM
M  V30 1 C 0.0 0.0 0.0 0
M  V30 2 C -1.5592 0.0487 0.0 0
M  V30 3 C 0.7187 1.3521 0.0 0
M  V30 4 C 0.7187 -1.2546 0.0 0
M  V30 5 C -2.351 -1.2059 0.0 0
M  V30 6 C 2.1804 1.4008 0.0 0
M  V30 7 C 3.6422 1.4496 0.0 0
M  V30 8 C 2.1317 2.9601 0.0 0
M  V30 9 C 2.1317 -0.0609 0.0 0
M  V30 10 C 4.3609 2.8017 0.0 0
M  V30 END ATOM
M  V30 BEGIN BOND
M  V30 1 2 1 2 CFG=2
M  V30 2 1 1 3
M  V30 3 1 1 4
M  V30 4 1 2 5
M  V30 5 1 3 6
M  V30 6 1 6 7
M  V30 7 1 6 8
M  V30 8 1 6 9
M  V30 9 2 7 10
M  V30 END BOND
M  V30 END CTAB
M  END
>  <Molecule Name>
3,3,5-trimethylhept-1,5-dien

>  <Molecule Name 2>
3,3,5-trimethylhept-1,5-dien

>  <Database>
Essential Oil Database

>  <InChI>
InChI=1S/C10H18/c1-6-9(3)8-10(4,5)7-2/h6-7H,2,8H2,1,3-5H3

>  <InChI-Key>
LYSNVLBVPTUPMT-UHFFFAOYSA-N

>  <Smiles>
CC(C)(CC(C)=CC)C=C

>  <Molecular Formula>
C10H18

$$$$
3-methyl-2(2-methylbutenyl)furan
Actelion Java MolfileCreator 2.0

  0  0  0  0  0  0              0 V3000
M  V30 BEGIN CTAB
M  V30 COUNTS 11 11 0 0 0
M  V30 BEGIN ATOM
M  V30 1 O 0.0 0.0 0.0 0
M  V30 2 C -0.5158 1.4636 0.0 0
M  V30 3 C 1.4396 0.0479 0.0 0
M  V30 4 C 0.6358 2.3754 0.0 0
M  V30 5 C -1.9795 1.9795 0.0 0
M  V30 6 C 1.8595 1.5116 0.0 0
M  V30 7 C 0.5878 3.9111 0.0 0
M  V30 8 C -3.1193 1.0437 0.0 0
M  V30 9 C -4.5829 1.5596 0.0 0
M  V30 10 C -2.8553 -0.3599 0.0 0
M  V30 11 C -5.7227 0.6238 0.0 0
M  V30 END ATOM
M  V30 BEGIN BOND
M  V30 1 1 1 2
M  V30 2 1 1 3
M  V30 3 2 2 4
M  V30 4 1 2 5
M  V30 5 2 3 6
M  V30 6 1 4 7
M  V30 7 1 5 8
M  V30 8 2 8 9 CFG=2
M  V30 9 1 8 10
M  V30 10 1 9 11
M  V30 11 1 4 6
M  V30 END BOND
M  V30 END CTAB
M  END
>  <Molecule Name>
3-methyl-2(2-methylbutenyl)furan

>  <Molecule Name 2>
3-methyl-2(2-methylbutenyl)furan

>  <Database>
Essential Oil Database

>  <InChI>
InChI=1S/C10H14O/c1-4-8(2)7-10-9(3)5-6-11-10/h4-6H,7H2,1-3H3

>  <InChI-Key>
OSWOOPVMQAFQOD-UHFFFAOYSA-N

>  <Smiles>
CC=C(C)Cc1c(C)cc[o]1

>  <Molecular Formula>
C10H14O

$$$$
3-methyl-2-butenal
Actelion Java MolfileCreator 2.0

  0  0  0  0  0  0              0 V3000
M  V30 BEGIN CTAB
M  V30 COUNTS 6 5 0 0 0
M  V30 BEGIN ATOM
M  V30 1 O 0.0 0.0 0.0 0
M  V30 2 C 0.7154 -1.249 0.0 0
M  V30 3 C -0.0606 -2.4981 0.0 0
M  V30 4 C -1.6128 -2.4496 0.0 0
M  V30 5 C -2.4011 -3.6987 0.0 0
M  V30 6 C -2.4011 -1.1035 0.0 0
M  V30 END ATOM
M  V30 BEGIN BOND
M  V30 1 2 1 2
M  V30 2 1 2 3
M  V30 3 2 3 4
M  V30 4 1 4 5
M  V30 5 1 4 6
M  V30 END BOND
M  V30 END CTAB
M  END
>  <Molecule Name>
3-methyl-2-butenal

>  <Molecule Name 2>
3-methyl-2-butenal

>  <Database>
Essential Oil Database

>  <InChI>
InChI=1S/C5H8O/c1-5(2)3-4-6/h3-4H,1-2H3

>  <InChI-Key>
SEPQTYODOKLVSB-UHFFFAOYSA-N

>  <Smiles>
CC(C)=CC=O

>  <Molecular Formula>
C5H8O

$$$$
1,11(e)-tridecadien-3,5,7,9-tetrayne
Actelion Java MolfileCreator 2.0

  0  0  0  0  0  0              0 V3000
M  V30 BEGIN CTAB
M  V30 COUNTS 13 12 0 0 0
M  V30 BEGIN ATOM
M  V30 1 C 0.0 0.0 0.0 0
M  V30 2 C 0.7267 1.3445 0.0 0
M  V30 3 C -0.7873 -1.2476 0.0 0
M  V30 4 C 1.4414 2.689 0.0 0
M  V30 5 C -1.5746 -2.4952 0.0 0
M  V30 6 C 2.1681 4.0335 0.0 0
M  V30 7 C -2.3498 -3.7428 0.0 0
M  V30 8 C 2.8828 5.378 0.0 0
M  V30 9 C -3.1371 -4.9904 0.0 0
M  V30 10 C 3.5974 6.7225 0.0 0
M  V30 11 C -4.6876 -4.9419 0.0 0
M  V30 12 C 5.0509 6.7709 0.0 0
M  V30 13 C -5.4749 -6.1895 0.0 0
M  V30 END ATOM
M  V30 BEGIN BOND
M  V30 1 1 1 2
M  V30 2 3 1 3
M  V30 3 3 2 4
M  V30 4 1 3 5
M  V30 5 1 4 6
M  V30 6 3 5 7
M  V30 7 3 6 8
M  V30 8 1 7 9
M  V30 9 1 8 10
M  V30 10 2 9 11
M  V30 11 2 10 12
M  V30 12 1 11 13
M  V30 END BOND
M  V30 END CTAB
M  END
>  <Molecule Name>
1,11(e)-tridecadien-3,5,7,9-tetrayne

>  <Molecule Name 2>
1,11(e)-tridecadien-3,5,7,9-tetrayne

>  <Database>
Essential Oil Database

>  <InChI>
InChI=1S/C13H8/c1-3-5-7-9-11-13-12-10-8-6-4-2/h3-4,6H,1H2,2H3/b6-4+

>  <InChI-Key>
KBEMPFYJJCTZIG-GQCTYLIASA-N

>  <Smiles>
C/C=C/C#CC#CC#CC#CC=C

>  <Molecular Formula>
C13H8

$$$$
2-heptanone
Actelion Java MolfileCreator 2.0

  0  0  0  0  0  0              0 V3000
M  V30 BEGIN CTAB
M  V30 COUNTS 8 7 0 0 0
M  V30 BEGIN ATOM
M  V30 1 O 0.0 0.0 0.0 0
M  V30 2 C -0.0488 1.5619 0.0 0
M  V30 3 C 1.208 2.355 0.0 0
M  V30 4 C -1.4032 2.355 0.0 0
M  V30 5 C 2.4648 1.6229 0.0 0
M  V30 6 C 3.7217 2.416 0.0 0
M  V30 7 C 4.9786 1.6839 0.0 0
M  V30 8 C 6.2354 2.4771 0.0 0
M  V30 END ATOM
M  V30 BEGIN BOND
M  V30 1 2 1 2
M  V30 2 1 2 3
M  V30 3 1 2 4
M  V30 4 1 3 5
M  V30 5 1 5 6
M  V30 6 1 6 7
M  V30 7 1 7 8
M  V30 END BOND
M  V30 END CTAB
M  END
>  <Molecule Name>
2-heptanone

>  <Molecule Name 2>
2-heptanone

>  <Database>
Essential Oil Database

>  <InChI>
InChI=1S/C7H14O/c1-3-4-5-6-7(2)8/h3-6H2,1-2H3

>  <InChI-Key>
CATSNJVOTSVZJV-UHFFFAOYSA-N

>  <Smiles>
CCCCCC(C)=O

>  <Molecular Formula>
C7H14O

$$$$
2-propylfuran
Actelion Java MolfileCreator 2.0

  0  0  0  0  0  0              0 V3000
M  V30 BEGIN CTAB
M  V30 COUNTS 8 8 0 0 0
M  V30 BEGIN ATOM
M  V30 1 O 0.0 0.0 0.0 0
M  V30 2 C 1.1743 0.9296 0.0 0
M  V30 3 C 0.4281 -1.3945 0.0 0
M  V30 4 C 2.3486 0.0978 0.0 0
M  V30 5 C 1.1253 2.4954 0.0 0
M  V30 6 C 1.896 -1.3455 0.0 0
M  V30 7 C 2.3853 3.2905 0.0 0
M  V30 8 C 2.3364 4.8563 0.0 0
M  V30 END ATOM
M  V30 BEGIN BOND
M  V30 1 1 1 2
M  V30 2 1 1 3
M  V30 3 2 2 4
M  V30 4 1 2 5
M  V30 5 2 3 6
M  V30 6 1 5 7
M  V30 7 1 7 8
M  V30 8 1 4 6
M  V30 END BOND
M  V30 END CTAB
M  END
>  <Molecule Name>
2-propylfuran

>  <Molecule Name 2>
2-propylfuran

>  <Database>
Essential Oil Database

>  <InChI>
InChI=1S/C7H10O/c1-2-4-7-5-3-6-8-7/h3,5-6H,2,4H2,1H3

>  <InChI-Key>
CPLJMYOQYRCCBY-UHFFFAOYSA-N

>  <Smiles>
CCCc1ccc[o]1

>  <Molecular Formula>
C7H10O

$$$$
4-methylhexanal
Actelion Java MolfileCreator 2.0

  0  0  0  0  0  0              0 V3000
M  V30 BEGIN CTAB
M  V30 COUNTS 8 7 0 0 0
M  V30 BEGIN ATOM
M  V30 1 O 0.0 0.0 0.0 0
M  V30 2 C 1.2837 0.8361 0.0 0
M  V30 3 C 2.5674 0.1295 0.0 0
M  V30 4 C 3.8511 0.9657 0.0 0
M  V30 5 C 5.1349 0.2473 0.0 0 CFG=2
M  V30 6 C 6.4186 1.0835 0.0 0
M  V30 7 C 5.0877 -1.2366 0.0 0
M  V30 8 C 7.7023 0.3415 0.0 0
M  V30 END ATOM
M  V30 BEGIN BOND
M  V30 1 2 1 2
M  V30 2 1 2 3
M  V30 3 1 3 4
M  V30 4 1 4 5
M  V30 5 1 5 6
M  V30 6 1 5 7 CFG=3
M  V30 7 1 6 8
M  V30 END BOND
M  V30 BEGIN COLLECTION
M  V30 MDLV30/STERAC1 ATOMS=(1 5)
M  V30 END COLLECTION
M  V30 END CTAB
M  END
>  <Molecule Name>
4-methylhexanal

>  <Molecule Name 2>
4-methylhexanal

>  <Database>
Essential Oil Database

>  <InChI>
InChI=1S/C7H14O/c1-3-7(2)5-4-6-8/h6-7H,3-5H2,1-2H3/t7-/m0/s1

>  <InChI-Key>
GIGNTOMJQYNUNL-ZETCQYMHSA-N

>  <Smiles>
CCC(C)CCC=O

>  <Molecular Formula>
C7H14O

$$$$
amyl alcohol
Actelion Java MolfileCreator 2.0

  0  0  0  0  0  0              0 V3000
M  V30 BEGIN CTAB
M  V30 COUNTS 6 5 0 0 0
M  V30 BEGIN ATOM
M  V30 1 O 0.0 0.0 0.0 0
M  V30 2 C 1.2804 0.813 0.0 0
M  V30 3 C 2.5609 0.0813 0.0 0
M  V30 4 C 3.8414 0.8943 0.0 0
M  V30 5 C 5.1219 0.1626 0.0 0
M  V30 6 C 6.4024 0.9756 0.0 0
M  V30 END ATOM
M  V30 BEGIN BOND
M  V30 1 1 1 2
M  V30 2 1 2 3
M  V30 3 1 3 4
M  V30 4 1 4 5
M  V30 5 1 5 6
M  V30 END BOND
M  V30 END CTAB
M  END
>  <Molecule Name>
amyl alcohol

>  <Molecule Name 2>
amyl alcohol

>  <Database>
Essential Oil Database

>  <InChI>
InChI=1S/C5H12O/c1-2-3-4-5-6/h6H,2-5H2,1H3

>  <InChI-Key>
AMQJEAYHLZJPGS-UHFFFAOYSA-N

>  <Smiles>
CCCCCO

>  <Molecular Formula>
C5H12O

$$$$
trans-m-mentha-4,8-diene
Actelion Java MolfileCreator 2.0

  0  0  0  0  0  0              0 V3000
M  V30 BEGIN CTAB
M  V30 COUNTS 10 10 0 0 0
M  V30 BEGIN ATOM
M  V30 1 C 0.0 0.0 0.0 0
M  V30 2 C -0.0485 -1.4579 0.0 0
M  V30 3 C 1.2514 0.7775 0.0 0 CFG=2
M  V30 4 C -1.3486 0.7775 0.0 0
M  V30 5 C 2.5028 0.0485 0.0 0
M  V30 6 C 1.2028 2.3327 0.0 0
M  V30 7 C 3.7543 0.8261 0.0 0
M  V30 8 C 2.4542 3.1103 0.0 0
M  V30 9 C 3.7057 2.3813 0.0 0
M  V30 10 C 2.4056 4.6655 0.0 0
M  V30 END ATOM
M  V30 BEGIN BOND
M  V30 1 2 1 2
M  V30 2 1 3 1 CFG=1
M  V30 3 1 1 4
M  V30 4 1 3 5
M  V30 5 1 3 6
M  V30 6 2 5 7
M  V30 7 1 6 8
M  V30 8 1 7 9
M  V30 9 1 8 10
M  V30 10 1 8 9
M  V30 END BOND
M  V30 BEGIN COLLECTION
M  V30 MDLV30/STERAC1 ATOMS=(1 3)
M  V30 END COLLECTION
M  V30 END CTAB
M  END
>  <Molecule Name>
trans-m-mentha-4,8-diene

>  <Molecule Name 2>
trans-m-mentha-4,8-diene

>  <Database>
Essential Oil Database

>  <InChI>
InChI=1S/C10H16/c1-8(2)10-6-4-5-9(3)7-10/h4,6,9-10H,1,5,7H2,2-3H3/t9?,10-/m1/s1

>  <InChI-Key>
OJBWHTRRQQNRBF-QVDQXJPCSA-N

>  <Smiles>
CC(C1)CC=CC1C(C)=C

>  <Molecular Formula>
C10H16

$$$$
trans-beta-terpineol
Actelion Java MolfileCreator 2.0

  0  0  0  0  0  0              0 V3000
M  V30 BEGIN CTAB
M  V30 COUNTS 11 11 0 0 0
M  V30 BEGIN ATOM
M  V30 1 O 0.0 0.0 0.0 0
M  V30 2 C -1.0394 -1.1211 0.0 0 CFG=2
M  V30 3 C 0.2335 -1.8102 0.0 0
M  V30 4 C -2.4058 -1.8102 0.0 0
M  V30 5 C -2.0788 0.0934 0.0 0
M  V30 6 C 0.1868 -3.2817 0.0 0
M  V30 7 C -2.4525 -3.2817 0.0 0
M  V30 8 C -1.1795 -3.9708 0.0 0 CFG=1
M  V30 9 C -1.2262 -5.4424 0.0 0
M  V30 10 C -2.5927 -6.1548 0.0 0
M  V30 11 C 0.0467 -6.1548 0.0 0
M  V30 END ATOM
M  V30 BEGIN BOND
M  V30 1 1 2 1 CFG=1
M  V30 2 1 2 3
M  V30 3 1 2 4
M  V30 4 1 2 5
M  V30 5 1 3 6
M  V30 6 1 4 7
M  V30 7 1 6 8
M  V30 8 1 8 9 CFG=1
M  V30 9 2 9 10
M  V30 10 1 9 11
M  V30 11 1 7 8
M  V30 END BOND
M  V30 BEGIN COLLECTION
M  V30 MDLV30/STEABS ATOMS=(2 2 8)
M  V30 END COLLECTION
M  V30 END CTAB
M  END
>  <Molecule Name>
trans-beta-terpineol

>  <Molecule Name 2>
trans-beta-terpineol

>  <Database>
Essential Oil Database

>  <InChI>
InChI=1S/C10H18O/c1-8(2)9-4-6-10(3,11)7-5-9/h9,11H,1,4-7H2,2-3H3/t9-,10+

>  <InChI-Key>
RUJPNZNXGCHGID-AOOOYVTPSA-N

>  <Smiles>
C[C@](CC1)(CC[C@@H]1C(C)=C)O

>  <Molecular Formula>
C10H18O

$$$$
benzophenone
Actelion Java MolfileCreator 2.0

  0  0  0  0  0  0              0 V3000
M  V30 BEGIN CTAB
M  V30 COUNTS 14 15 0 0 0
M  V30 BEGIN ATOM
M  V30 1 O 0.0 0.0 0.0 0
M  V30 2 C 1.267 -0.7257 0.0 0
M  V30 3 C 1.2178 -2.2019 0.0 0
M  V30 4 C 2.5341 0.0738 0.0 0
M  V30 5 C 2.4849 -2.94 0.0 0
M  V30 6 C -0.1476 -2.94 0.0 0
M  V30 7 C 2.4849 1.6484 0.0 0
M  V30 8 C 3.8011 -0.6519 0.0 0
M  V30 9 C 2.4357 -4.4162 0.0 0
M  V30 10 C -0.1968 -4.4162 0.0 0
M  V30 11 C 3.7519 2.448 0.0 0
M  V30 12 C 5.0682 0.1353 0.0 0
M  V30 13 C 1.0702 -5.1543 0.0 0
M  V30 14 C 5.019 1.7222 0.0 0
M  V30 END ATOM
M  V30 BEGIN BOND
M  V30 1 2 1 2
M  V30 2 1 2 3
M  V30 3 1 2 4
M  V30 4 2 3 5
M  V30 5 1 3 6
M  V30 6 2 4 7
M  V30 7 1 4 8
M  V30 8 1 5 9
M  V30 9 2 6 10
M  V30 10 1 7 11
M  V30 11 2 8 12
M  V30 12 2 9 13
M  V30 13 2 11 14
M  V30 14 1 10 13
M  V30 15 1 12 14
M  V30 END BOND
M  V30 END CTAB
M  END
>  <Molecule Name>
benzophenone

>  <Molecule Name 2>
benzophenone

>  <Database>
Essential Oil Database

>  <InChI>
InChI=1S/C13H10O/c14-13(11-7-3-1-4-8-11)12-9-5-2-6-10-12/h1-10H

>  <InChI-Key>
RWCCWEUUXYIKHB-UHFFFAOYSA-N

>  <Smiles>
O=C(c1ccccc1)c1ccccc1

>  <Molecular Formula>
C13H10O

$$$$
cinnamyl tiglate
Actelion Java MolfileCreator 2.0

  0  0  0  0  0  0              0 V3000
M  V30 BEGIN CTAB
M  V30 COUNTS 16 16 0 0 0
M  V30 BEGIN ATOM
M  V30 1 O 0.0 0.0 0.0 0
M  V30 2 C -1.3565 -0.721 0.0 0
M  V30 3 O -1.4054 -2.1876 0.0 0
M  V30 4 C -2.7131 0.0733 0.0 0
M  V30 5 C -0.1466 -2.9208 0.0 0
M  V30 6 C -2.762 1.6376 0.0 0
M  V30 7 C -4.0696 -0.6477 0.0 0
M  V30 8 C -0.1955 -4.3874 0.0 0
M  V30 9 C -4.1185 2.432 0.0 0
M  V30 10 C 1.0632 -5.1084 0.0 0
M  V30 11 C 1.0143 -6.575 0.0 0
M  V30 12 C 2.2731 -7.2961 0.0 0
M  V30 13 C -0.3421 -7.2961 0.0 0
M  V30 14 C 2.2242 -8.7626 0.0 0
M  V30 15 C -0.391 -8.7626 0.0 0
M  V30 16 C 0.8677 -9.4837 0.0 0
M  V30 END ATOM
M  V30 BEGIN BOND
M  V30 1 2 1 2
M  V30 2 1 2 3
M  V30 3 1 2 4
M  V30 4 1 3 5
M  V30 5 2 4 6
M  V30 6 1 4 7
M  V30 7 1 5 8
M  V30 8 1 6 9
M  V30 9 2 8 10
M  V30 10 1 10 11
M  V30 11 2 11 12
M  V30 12 1 11 13
M  V30 13 1 12 14
M  V30 14 2 13 15
M  V30 15 2 14 16
M  V30 16 1 15 16
M  V30 END BOND
M  V30 END CTAB
M  END
>  <Molecule Name>
cinnamyl tiglate

>  <Molecule Name 2>
cinnamyl tiglate

>  <Database>
Essential Oil Database

>  <InChI>
InChI=1S/C14H16O2/c1-3-12(2)14(15)16-11-7-10-13-8-5-4-6-9-13/h3-10H,11H2,1-2H3/b10-7+,12-3+

>  <InChI-Key>
KRNURAJANZKGQN-IBIBRXRCSA-N

>  <Smiles>
C/C=C(\C)/C(OC/C=C/c1ccccc1)=O

>  <Molecular Formula>
C14H16O2

$$$$
methyl linolenate
Actelion Java MolfileCreator 2.0

  0  0  0  0  0  0              0 V3000
M  V30 BEGIN CTAB
M  V30 COUNTS 21 20 0 0 0
M  V30 BEGIN ATOM
M  V30 1 O 0.0 0.0 0.0 0
M  V30 2 C -0.5417 -1.3543 0.0 0
M  V30 3 O 0.3768 -2.426 0.0 0
M  V30 4 C -2.0491 -1.5898 0.0 0
M  V30 5 C 1.79 -2.0962 0.0 0
M  V30 6 C -3.0619 -0.4239 0.0 0
M  V30 7 C -4.5693 -0.6594 0.0 0
M  V30 8 C -5.5821 0.5064 0.0 0
M  V30 9 C -7.0896 0.2708 0.0 0
M  V30 10 C -7.6313 -1.0834 0.0 0
M  V30 11 C -6.7127 -2.1551 0.0 0
M  V30 12 C -7.2544 -3.5094 0.0 0
M  V30 13 C -8.7619 -3.745 0.0 0
M  V30 14 C -9.7747 -2.5791 0.0 0
M  V30 15 C -11.2821 -2.8146 0.0 0
M  V30 16 C -12.2949 -1.6487 0.0 0
M  V30 17 C -11.8474 -0.2002 0.0 0
M  V30 18 C -12.8602 0.9656 0.0 0
M  V30 19 C -12.4126 2.4142 0.0 0
M  V30 20 C -10.9994 2.7439 0.0 0
M  V30 21 C -10.5519 4.1925 0.0 0
M  V30 END ATOM
M  V30 BEGIN BOND
M  V30 1 2 1 2
M  V30 2 1 2 3
M  V30 3 1 2 4
M  V30 4 1 3 5
M  V30 5 1 4 6
M  V30 6 1 6 7
M  V30 7 1 7 8
M  V30 8 1 8 9
M  V30 9 1 9 10
M  V30 10 1 10 11
M  V30 11 1 11 12
M  V30 12 2 12 13
M  V30 13 1 13 14
M  V30 14 1 14 15
M  V30 15 2 15 16
M  V30 16 1 16 17
M  V30 17 1 17 18
M  V30 18 2 18 19
M  V30 19 1 19 20
M  V30 20 1 20 21
M  V30 END BOND
M  V30 END CTAB
M  END
>  <Molecule Name>
methyl linolenate

>  <Molecule Name 2>
methyl linolenate

>  <Database>
Essential Oil Database

>  <InChI>
InChI=1S/C19H32O2/c1-3-4-5-6-7-8-9-10-11-12-13-14-15-16-17-18-19(20)21-2/h4-5,7-8,10-11H,3,6,9,12-18H2,1-2H3/b5-4-,8-7-,11-10-

>  <InChI-Key>
DVWSXZIHSUZZKJ-YSTUJMKBSA-N

>  <Smiles>
CC/C=C\C/C=C\C/C=C\CCCCCCCC(OC)=O

>  <Molecular Formula>
C19H32O2

$$$$
benzyl acetate
Actelion Java MolfileCreator 2.0

  0  0  0  0  0  0              0 V3000
M  V30 BEGIN CTAB
M  V30 COUNTS 11 11 0 0 0
M  V30 BEGIN ATOM
M  V30 1 O 0.0 0.0 0.0 0
M  V30 2 C -1.3725 -0.7038 0.0 0
M  V30 3 O -1.4194 -2.182 0.0 0
M  V30 4 C -2.7451 0.129 0.0 0
M  V30 5 C -0.1407 -2.8741 0.0 0
M  V30 6 C -0.1877 -4.3522 0.0 0
M  V30 7 C 1.091 -5.0444 0.0 0
M  V30 8 C -1.5602 -5.0444 0.0 0
M  V30 9 C 1.044 -6.5225 0.0 0
M  V30 10 C -1.6071 -6.5225 0.0 0
M  V30 11 C -0.3284 -7.2147 0.0 0
M  V30 END ATOM
M  V30 BEGIN BOND
M  V30 1 2 1 2
M  V30 2 1 2 3
M  V30 3 1 2 4
M  V30 4 1 3 5
M  V30 5 1 5 6
M  V30 6 2 6 7
M  V30 7 1 6 8
M  V30 8 1 7 9
M  V30 9 2 8 10
M  V30 10 2 9 11
M  V30 11 1 10 11
M  V30 END BOND
M  V30 END CTAB
M  END
>  <Molecule Name>
benzyl acetate

>  <Molecule Name 2>
benzyl acetate

>  <Database>
Essential Oil Database

>  <InChI>
InChI=1S/C9H10O2/c1-8(10)11-7-9-5-3-2-4-6-9/h2-6H,7H2,1H3

>  <InChI-Key>
QUKGYYKBILRGFE-UHFFFAOYSA-N

>  <Smiles>
CC(OCc1ccccc1)=O

>  <Molecular Formula>
C9H10O2

$$$$
furfuryl methyl sulfide
Actelion Java MolfileCreator 2.0

  0  0  0  0  0  0              0 V3000
M  V30 BEGIN CTAB
M  V30 COUNTS 8 8 0 0 0
M  V30 BEGIN ATOM
M  V30 1 S 0.0 0.0 0.0 0
M  V30 2 C 1.2711 -0.7404 0.0 0
M  V30 3 C -0.0493 1.5797 0.0 0
M  V30 4 C 1.2218 -2.2214 0.0 0
M  V30 5 O -0.0617 -3.0607 0.0 0
M  V30 6 C 2.4066 -3.0607 0.0 0
M  V30 7 C 0.3702 -4.4676 0.0 0
M  V30 8 C 1.8759 -4.4676 0.0 0
M  V30 END ATOM
M  V30 BEGIN BOND
M  V30 1 1 1 2
M  V30 2 1 1 3
M  V30 3 1 2 4
M  V30 4 1 4 5
M  V30 5 2 4 6
M  V30 6 1 5 7
M  V30 7 1 6 8
M  V30 8 2 7 8
M  V30 END BOND
M  V30 END CTAB
M  END
>  <Molecule Name>
furfuryl methyl sulfide

>  <Molecule Name 2>
furfuryl methyl sulfide

>  <Database>
Essential Oil Database

>  <InChI>
InChI=1S/C6H8OS/c1-8-5-6-3-2-4-7-6/h2-4H,5H2,1H3

>  <InChI-Key>
SKSFHXVDHVKIBN-UHFFFAOYSA-N

>  <Smiles>
CSCc1ccc[o]1

>  <Molecular Formula>
C6H8OS

$$$$
3-methyl-2-butenylisovalerate
Actelion Java MolfileCreator 2.0

  0  0  0  0  0  0              0 V3000
M  V30 BEGIN CTAB
M  V30 COUNTS 12 11 0 0 0
M  V30 BEGIN ATOM
M  V30 1 O 0.0 0.0 0.0 0
M  V30 2 C -1.5327 0.0478 0.0 0
M  V30 3 O -2.311 -1.1854 0.0 0 CHG=-1
M  V30 4 C -2.311 1.377 0.0 0 CFG=2
M  V30 5 C -1.6045 2.7062 0.0 0
M  V30 6 C -3.8438 1.4249 0.0 0
M  V30 7 C -0.8861 4.0354 0.0 0
M  V30 8 C -2.9337 3.4845 0.0 0
M  V30 9 C -0.3712 1.9877 0.0 0
M  V30 10 C -4.6221 0.1915 0.0 0
M  V30 11 C -6.1549 0.2394 0.0 0
M  V30 12 C -6.9332 -0.9938 0.0 0
M  V30 END ATOM
M  V30 BEGIN BOND
M  V30 1 2 1 2
M  V30 2 1 2 3
M  V30 3 1 2 4
M  V30 4 1 4 5
M  V30 5 1 4 6 CFG=1
M  V30 6 1 5 7
M  V30 7 1 5 8
M  V30 8 1 5 9
M  V30 9 1 6 10
M  V30 10 2 10 11 CFG=2
M  V30 11 1 11 12
M  V30 END BOND
M  V30 BEGIN COLLECTION
M  V30 MDLV30/STERAC1 ATOMS=(1 4)
M  V30 END COLLECTION
M  V30 END CTAB
M  END
>  <Molecule Name>
3-methyl-2-butenylisovalerate

>  <Molecule Name 2>
3-methyl-2-butenylisovalerate

>  <Database>
Essential Oil Database

>  <InChI>
InChI=1S/C10H18O2/c1-5-6-7-8(9(11)12)10(2,3)4/h5-6,8H,7H2,1-4H3,(H,11,12)/p-1/t8-/m1/s1

>  <InChI-Key>
ABOUIOYHYBEAAH-MRVPVSSYSA-M

>  <Smiles>
CC(C)(C)C(CC=CC)C([O-])=O

>  <Molecular Formula>
C10H17O2

$$$$
benzyl tiglate
Actelion Java MolfileCreator 2.0

  0  0  0  0  0  0              0 V3000
M  V30 BEGIN CTAB
M  V30 COUNTS 14 14 0 0 0
M  V30 BEGIN ATOM
M  V30 1 O 0.0 0.0 0.0 0
M  V30 2 C -1.3513 -0.7304 0.0 0
M  V30 3 O -1.4 -2.1913 0.0 0
M  V30 4 C -2.7026 0.0608 0.0 0
M  V30 5 C -0.146 -2.9095 0.0 0
M  V30 6 C -2.7513 1.6191 0.0 0
M  V30 7 C -4.0539 -0.6573 0.0 0
M  V30 8 C -0.1947 -4.3704 0.0 0
M  V30 9 C -4.1026 2.4104 0.0 0
M  V30 10 C 1.0591 -5.0887 0.0 0
M  V30 11 C -1.546 -5.0887 0.0 0
M  V30 12 C 1.0104 -6.5495 0.0 0
M  V30 13 C -1.5947 -6.5495 0.0 0
M  V30 14 C -0.3408 -7.2678 0.0 0
M  V30 END ATOM
M  V30 BEGIN BOND
M  V30 1 2 1 2
M  V30 2 1 2 3
M  V30 3 1 2 4
M  V30 4 1 3 5
M  V30 5 2 4 6
M  V30 6 1 4 7
M  V30 7 1 5 8
M  V30 8 1 6 9
M  V30 9 2 8 10
M  V30 10 1 8 11
M  V30 11 1 10 12
M  V30 12 2 11 13
M  V30 13 2 12 14
M  V30 14 1 13 14
M  V30 END BOND
M  V30 END CTAB
M  END
>  <Molecule Name>
benzyl tiglate

>  <Molecule Name 2>
benzyl tiglate

>  <Database>
Essential Oil Database

>  <InChI>
InChI=1S/C12H14O2/c1-3-10(2)12(13)14-9-11-7-5-4-6-8-11/h3-8H,9H2,1-2H3/b10-3+

>  <InChI-Key>
QRGSTISKDZCDHV-XCVCLJGOSA-N

>  <Smiles>
C/C=C(\C)/C(OCc1ccccc1)=O

>  <Molecular Formula>
C12H14O2

$$$$
citronellyl propionate
Actelion Java MolfileCreator 2.0

  0  0  0  0  0  0              0 V3000
M  V30 BEGIN CTAB
M  V30 COUNTS 15 14 0 0 0
M  V30 BEGIN ATOM
M  V30 1 O 0.0 0.0 0.0 0
M  V30 2 C -0.0491 1.573 0.0 0
M  V30 3 O 1.2166 2.3718 0.0 0
M  V30 4 C -1.4132 2.3718 0.0 0
M  V30 5 C 2.4824 1.6344 0.0 0
M  V30 6 C -2.7774 1.6344 0.0 0
M  V30 7 C 3.7482 2.4333 0.0 0
M  V30 8 C 5.014 1.6959 0.0 0 CFG=2
M  V30 9 C 6.2798 2.4947 0.0 0
M  V30 10 C 4.9649 0.2212 0.0 0
M  V30 11 C 7.5457 1.7573 0.0 0
M  V30 12 C 8.8115 2.5562 0.0 0
M  V30 13 C 10.0773 1.8188 0.0 0
M  V30 14 C 11.3431 2.6176 0.0 0
M  V30 15 C 10.0281 0.3441 0.0 0
M  V30 END ATOM
M  V30 BEGIN BOND
M  V30 1 2 1 2
M  V30 2 1 2 3
M  V30 3 1 2 4
M  V30 4 1 3 5
M  V30 5 1 4 6
M  V30 6 1 5 7
M  V30 7 1 7 8
M  V30 8 1 8 9
M  V30 9 1 8 10 CFG=3
M  V30 10 1 9 11
M  V30 11 1 11 12
M  V30 12 2 12 13
M  V30 13 1 13 14
M  V30 14 1 13 15
M  V30 END BOND
M  V30 BEGIN COLLECTION
M  V30 MDLV30/STERAC1 ATOMS=(1 8)
M  V30 END COLLECTION
M  V30 END CTAB
M  END
>  <Molecule Name>
citronellyl propionate

>  <Molecule Name 2>
citronellyl propionate

>  <Database>
Essential Oil Database

>  <InChI>
InChI=1S/C13H24O2/c1-5-13(14)15-10-9-12(4)8-6-7-11(2)3/h7,12H,5-6,8-10H2,1-4H3/t12-/m0/s1

>  <InChI-Key>
POPNTVRHTZDEBW-LBPRGKRZSA-N

>  <Smiles>
CCC(OCCC(C)CCC=C(C)C)=O

>  <Molecular Formula>
C13H24O2

$$$$
2-pentadecanone
Actelion Java MolfileCreator 2.0

  0  0  0  0  0  0              0 V3000
M  V30 BEGIN CTAB
M  V30 COUNTS 16 15 0 0 0
M  V30 BEGIN ATOM
M  V30 1 O 0.0 0.0 0.0 0
M  V30 2 C -0.0493 1.579 0.0 0
M  V30 3 C 1.2212 2.3808 0.0 0
M  V30 4 C -1.4186 2.3808 0.0 0
M  V30 5 C 2.4918 1.6406 0.0 0
M  V30 6 C 3.7624 2.4425 0.0 0
M  V30 7 C 5.033 1.7023 0.0 0
M  V30 8 C 6.3036 2.5041 0.0 0
M  V30 9 C 7.5742 1.764 0.0 0
M  V30 10 C 8.8448 2.5658 0.0 0
M  V30 11 C 10.1154 1.8257 0.0 0
M  V30 12 C 11.386 2.6275 0.0 0
M  V30 13 C 12.6566 1.8874 0.0 0
M  V30 14 C 13.9272 2.6892 0.0 0
M  V30 15 C 15.1978 1.949 0.0 0
M  V30 16 C 16.4685 2.7385 0.0 0
M  V30 END ATOM
M  V30 BEGIN BOND
M  V30 1 2 1 2
M  V30 2 1 2 3
M  V30 3 1 2 4
M  V30 4 1 3 5
M  V30 5 1 5 6
M  V30 6 1 6 7
M  V30 7 1 7 8
M  V30 8 1 8 9
M  V30 9 1 9 10
M  V30 10 1 10 11
M  V30 11 1 11 12
M  V30 12 1 12 13
M  V30 13 1 13 14
M  V30 14 1 14 15
M  V30 15 1 15 16
M  V30 END BOND
M  V30 END CTAB
M  END
>  <Molecule Name>
2-pentadecanone

>  <Molecule Name 2>
2-pentadecanone

>  <Database>
Essential Oil Database

>  <InChI>
InChI=1S/C15H30O/c1-3-4-5-6-7-8-9-10-11-12-13-14-15(2)16/h3-14H2,1-2H3

>  <InChI-Key>
CJPNOLIZCWDHJK-UHFFFAOYSA-N

>  <Smiles>
CCCCCCCCCCCCCC(C)=O

>  <Molecular Formula>
C15H30O

$$$$
ethyl (e,z)-2,4-decadienoate
Actelion Java MolfileCreator 2.0

  0  0  0  0  0  0              0 V3000
M  V30 BEGIN CTAB
M  V30 COUNTS 14 13 0 0 0
M  V30 BEGIN ATOM
M  V30 1 O 0.0 0.0 0.0 0
M  V30 2 C 1.2821 -0.7057 0.0 0
M  V30 3 O 1.235 -2.1878 0.0 0
M  V30 4 C 2.5642 0.1058 0.0 0
M  V30 5 C -0.1411 -2.8818 0.0 0
M  V30 6 C 3.8463 -0.5998 0.0 0
M  V30 7 C -1.5173 -2.0584 0.0 0
M  V30 8 C 3.7992 -2.0819 0.0 0
M  V30 9 C 5.0814 -2.7759 0.0 0
M  V30 10 C 6.3635 -1.9525 0.0 0
M  V30 11 C 7.6456 -2.6465 0.0 0
M  V30 12 C 8.9277 -1.8231 0.0 0
M  V30 13 C 10.2098 -2.5171 0.0 0
M  V30 14 C 11.4919 -1.6938 0.0 0
M  V30 END ATOM
M  V30 BEGIN BOND
M  V30 1 2 1 2
M  V30 2 1 2 3
M  V30 3 1 2 4
M  V30 4 1 3 5
M  V30 5 2 4 6
M  V30 6 1 5 7
M  V30 7 1 6 8
M  V30 8 2 8 9
M  V30 9 1 9 10
M  V30 10 1 10 11
M  V30 11 1 11 12
M  V30 12 1 12 13
M  V30 13 1 13 14
M  V30 END BOND
M  V30 END CTAB
M  END
>  <Molecule Name>
ethyl (e,z)-2,4-decadienoate

>  <Molecule Name 2>
ethyl (e,z)-2,4-decadienoate

>  <Database>
Essential Oil Database

>  <InChI>
InChI=1S/C12H20O2/c1-3-5-6-7-8-9-10-11-12(13)14-4-2/h8-11H,3-7H2,1-2H3/b9-8-,11-10-

>  <InChI-Key>
OPCRGEVPIBLWAY-XESWYYRISA-N

>  <Smiles>
CCCCC/C=C\C=C/C(OCC)=O

>  <Molecular Formula>
C12H20O2

$$$$
1,4-dimethoxybenzene
Actelion Java MolfileCreator 2.0

  0  0  0  0  0  0              0 V3000
M  V30 BEGIN CTAB
M  V30 COUNTS 10 10 0 0 0
M  V30 BEGIN ATOM
M  V30 1 O 0.0 0.0 0.0 0
M  V30 2 C -0.047 -1.4823 0.0 0
M  V30 3 C -1.3764 0.8235 0.0 0
M  V30 4 C 1.2353 -2.1765 0.0 0
M  V30 5 C -1.4235 -2.1765 0.0 0
M  V30 6 C 1.1882 -3.6588 0.0 0
M  V30 7 C -1.4706 -3.6588 0.0 0
M  V30 8 C -0.1882 -4.353 0.0 0
M  V30 9 O -0.2352 -5.8354 0.0 0
M  V30 10 C 1.047 -6.5413 0.0 0
M  V30 END ATOM
M  V30 BEGIN BOND
M  V30 1 1 1 2
M  V30 2 1 1 3
M  V30 3 2 2 4
M  V30 4 1 2 5
M  V30 5 1 4 6
M  V30 6 2 5 7
M  V30 7 2 6 8
M  V30 8 1 8 9
M  V30 9 1 9 10
M  V30 10 1 7 8
M  V30 END BOND
M  V30 END CTAB
M  END
>  <Molecule Name>
1,4-dimethoxybenzene

>  <Molecule Name 2>
1,4-dimethoxybenzene

>  <Database>
Essential Oil Database

>  <InChI>
InChI=1S/C8H10O2/c1-9-7-3-5-8(10-2)6-4-7/h3-6H,1-2H3

>  <InChI-Key>
OHBQPCCCRFSCAX-UHFFFAOYSA-N

>  <Smiles>
COc(cc1)ccc1OC

>  <Molecular Formula>
C8H10O2

$$$$
retene
Actelion Java MolfileCreator 2.0

  0  0  0  0  0  0              0 V3000
M  V30 BEGIN CTAB
M  V30 COUNTS 18 20 0 0 0
M  V30 BEGIN ATOM
M  V30 1 C 0.0 0.0 0.0 0
M  V30 2 C 1.4686 0.0489 0.0 0
M  V30 3 C -0.7832 -1.2605 0.0 0
M  V30 4 C -0.7832 1.3584 0.0 0
M  V30 5 C 2.1907 -1.2116 0.0 0
M  V30 6 C 2.1907 1.4074 0.0 0
M  V30 7 C -2.3498 -1.2116 0.0 0
M  V30 8 C -0.0489 -2.5211 0.0 0
M  V30 9 C -2.3498 1.4074 0.0 0
M  V30 10 C 3.6593 -1.1626 0.0 0
M  V30 11 C 1.3951 -2.4721 0.0 0
M  V30 12 C 3.6593 1.4563 0.0 0
M  V30 13 C -3.1453 0.1468 0.0 0
M  V30 14 C -3.1453 -2.4721 0.0 0
M  V30 15 C 4.3936 0.1958 0.0 0
M  V30 16 C 5.8622 0.2447 0.0 0
M  V30 17 C 6.5843 1.6032 0.0 0
M  V30 18 C 6.5843 -1.0158 0.0 0
M  V30 END ATOM
M  V30 BEGIN BOND
M  V30 1 2 1 2
M  V30 2 1 1 3
M  V30 3 1 1 4
M  V30 4 1 2 5
M  V30 5 1 2 6
M  V30 6 1 3 7
M  V30 7 2 3 8
M  V30 8 2 4 9
M  V30 9 1 5 10
M  V30 10 2 5 11
M  V30 11 2 6 12
M  V30 12 2 7 13
M  V30 13 1 7 14
M  V30 14 2 10 15
M  V30 15 1 15 16
M  V30 16 1 16 17
M  V30 17 1 16 18
M  V30 18 1 8 11
M  V30 19 1 9 13
M  V30 20 1 12 15
M  V30 END BOND
M  V30 END CTAB
M  END
>  <Molecule Name>
retene

>  <Molecule Name 2>
retene

>  <Database>
Essential Oil Database

>  <InChI>
InChI=1S/C18H18/c1-12(2)14-7-10-17-15(11-14)8-9-16-13(3)5-4-6-18(16)17/h4-12H,1-3H3

>  <InChI-Key>
NXLOLUFNDSBYTP-UHFFFAOYSA-N

>  <Smiles>
CC(C)c1cc2ccc(c(C)ccc3)c3c2cc1

>  <Molecular Formula>
C18H18

$$$$
(z)-4-decenol
Actelion Java MolfileCreator 2.0

  0  0  0  0  0  0              0 V3000
M  V30 BEGIN CTAB
M  V30 COUNTS 11 10 0 0 0
M  V30 BEGIN ATOM
M  V30 1 O 0.0 0.0 0.0 0
M  V30 2 C 1.2966 -0.7018 0.0 0
M  V30 3 C 1.249 -2.2007 0.0 0
M  V30 4 C 2.5457 -2.9144 0.0 0
M  V30 5 C 2.4981 -4.4133 0.0 0
M  V30 6 C 3.7947 -5.1151 0.0 0
M  V30 7 C 5.0914 -4.2824 0.0 0
M  V30 8 C 6.388 -4.9843 0.0 0
M  V30 9 C 7.6846 -4.1516 0.0 0
M  V30 10 C 8.9813 -4.8534 0.0 0
M  V30 11 C 10.2779 -4.0207 0.0 0
M  V30 END ATOM
M  V30 BEGIN BOND
M  V30 1 1 1 2
M  V30 2 1 2 3
M  V30 3 1 3 4
M  V30 4 1 4 5
M  V30 5 2 5 6
M  V30 6 1 6 7
M  V30 7 1 7 8
M  V30 8 1 8 9
M  V30 9 1 9 10
M  V30 10 1 10 11
M  V30 END BOND
M  V30 END CTAB
M  END
>  <Molecule Name>
(z)-4-decenol

>  <Molecule Name 2>
(z)-4-decenol

>  <Database>
Essential Oil Database

>  <InChI>
InChI=1S/C10H20O/c1-2-3-4-5-6-7-8-9-10-11/h6-7,11H,2-5,8-10H2,1H3/b7-6-

>  <InChI-Key>
VUNFOJWKJSYIDH-SREVYHEPSA-N

>  <Smiles>
CCCCC/C=C\CCCO

>  <Molecular Formula>
C10H20O

$$$$
8-dodecenol
Actelion Java MolfileCreator 2.0

  0  0  0  0  0  0              0 V3000
M  V30 BEGIN CTAB
M  V30 COUNTS 13 12 0 0 0
M  V30 BEGIN ATOM
M  V30 1 O 0.0 0.0 0.0 0
M  V30 2 C 1.2908 0.8407 0.0 0
M  V30 3 C 2.5816 0.1065 0.0 0
M  V30 4 C 3.8724 0.9473 0.0 0
M  V30 5 C 5.1632 0.2368 0.0 0
M  V30 6 C 6.454 1.0776 0.0 0
M  V30 7 C 7.7448 0.3671 0.0 0
M  V30 8 C 9.0356 1.2079 0.0 0
M  V30 9 C 10.3264 0.4855 0.0 0
M  V30 10 C 10.279 -1.0065 0.0 0
M  V30 11 C 11.5698 -1.7171 0.0 0
M  V30 12 C 11.5224 -3.2092 0.0 0
M  V30 13 C 12.8132 -3.9079 0.0 0
M  V30 END ATOM
M  V30 BEGIN BOND
M  V30 1 1 1 2
M  V30 2 1 2 3
M  V30 3 1 3 4
M  V30 4 1 4 5
M  V30 5 1 5 6
M  V30 6 1 6 7
M  V30 7 1 7 8
M  V30 8 1 8 9
M  V30 9 2 9 10 CFG=2
M  V30 10 1 10 11
M  V30 11 1 11 12
M  V30 12 1 12 13
M  V30 END BOND
M  V30 END CTAB
M  END
>  <Molecule Name>
8-dodecenol

>  <Molecule Name 2>
8-dodecenol

>  <Database>
Essential Oil Database

>  <InChI>
InChI=1S/C12H24O/c1-2-3-4-5-6-7-8-9-10-11-12-13/h4-5,13H,2-3,6-12H2,1H3

>  <InChI-Key>
YEQONIQGGSENJQ-UHFFFAOYSA-N

>  <Smiles>
CCCC=CCCCCCCCO

>  <Molecular Formula>
C12H24O

$$$$
9-dodecenol
Actelion Java MolfileCreator 2.0

  0  0  0  0  0  0              0 V3000
M  V30 BEGIN CTAB
M  V30 COUNTS 13 12 0 0 0
M  V30 BEGIN ATOM
M  V30 1 O 0.0 0.0 0.0 0
M  V30 2 C 1.284 0.8152 0.0 0
M  V30 3 C 2.5681 0.0815 0.0 0
M  V30 4 C 3.8522 0.8968 0.0 0
M  V30 5 C 5.1363 0.163 0.0 0
M  V30 6 C 6.4204 0.9783 0.0 0
M  V30 7 C 7.7045 0.2445 0.0 0
M  V30 8 C 8.9886 1.0598 0.0 0
M  V30 9 C 10.2727 0.3261 0.0 0
M  V30 10 C 11.5568 1.1414 0.0 0
M  V30 11 C 12.8408 0.4076 0.0 0
M  V30 12 C 14.1249 1.2229 0.0 0
M  V30 13 C 15.409 0.4891 0.0 0
M  V30 END ATOM
M  V30 BEGIN BOND
M  V30 1 1 1 2
M  V30 2 1 2 3
M  V30 3 1 3 4
M  V30 4 1 4 5
M  V30 5 1 5 6
M  V30 6 1 6 7
M  V30 7 1 7 8
M  V30 8 1 8 9
M  V30 9 1 9 10
M  V30 10 2 10 11 CFG=2
M  V30 11 1 11 12
M  V30 12 1 12 13
M  V30 END BOND
M  V30 END CTAB
M  END
>  <Molecule Name>
9-dodecenol

>  <Molecule Name 2>
9-dodecenol

>  <Database>
Essential Oil Database

>  <InChI>
InChI=1S/C12H24O/c1-2-3-4-5-6-7-8-9-10-11-12-13/h3-4,13H,2,5-12H2,1H3

>  <InChI-Key>
GJNNIRNIXNLOJP-UHFFFAOYSA-N

>  <Smiles>
CCC=CCCCCCCCCO

>  <Molecular Formula>
C12H24O

$$$$
cadalene
Actelion Java MolfileCreator 2.0

  0  0  0  0  0  0              0 V3000
M  V30 BEGIN CTAB
M  V30 COUNTS 15 16 0 0 0
M  V30 BEGIN ATOM
M  V30 1 C 0.0 0.0 0.0 0
M  V30 2 C -0.0482 1.544 0.0 0
M  V30 3 C -1.339 -0.7237 0.0 0
M  V30 4 C 1.2425 -0.7237 0.0 0
M  V30 5 C -1.3872 2.3281 0.0 0
M  V30 6 C 1.1942 2.3281 0.0 0
M  V30 7 C -2.678 0.0603 0.0 0
M  V30 8 C -1.3872 -2.1713 0.0 0
M  V30 9 C 2.485 0.0603 0.0 0
M  V30 10 C -2.7262 1.6164 0.0 0
M  V30 11 C -1.4355 3.8722 0.0 0
M  V30 12 C 2.4367 1.6164 0.0 0
M  V30 13 C -0.1447 -2.8951 0.0 0
M  V30 14 C -2.7262 -2.8951 0.0 0
M  V30 15 C 3.7275 -0.6634 0.0 0
M  V30 END ATOM
M  V30 BEGIN BOND
M  V30 1 1 1 2
M  V30 2 1 1 3
M  V30 3 2 1 4
M  V30 4 1 2 5
M  V30 5 2 2 6
M  V30 6 2 3 7
M  V30 7 1 3 8
M  V30 8 1 4 9
M  V30 9 2 5 10
M  V30 10 1 5 11
M  V30 11 1 6 12
M  V30 12 1 8 13
M  V30 13 1 8 14
M  V30 14 1 9 15
M  V30 15 1 7 10
M  V30 16 2 9 12
M  V30 END BOND
M  V30 END CTAB
M  END
>  <Molecule Name>
cadalene

>  <Molecule Name 2>
cadalene

>  <Database>
Essential Oil Database

>  <InChI>
InChI=1S/C15H18/c1-10(2)13-8-6-12(4)14-7-5-11(3)9-15(13)14/h5-10H,1-4H3

>  <InChI-Key>
VMOJIHDTVZTGDO-UHFFFAOYSA-N

>  <Smiles>
CC(C)c1ccc(C)c2ccc(C)cc12

>  <Molecular Formula>
C15H18

$$$$
(z)-7-dodecenol
Actelion Java MolfileCreator 2.0

  0  0  0  0  0  0              0 V3000
M  V30 BEGIN CTAB
M  V30 COUNTS 13 12 0 0 0
M  V30 BEGIN ATOM
M  V30 1 O 0.0 0.0 0.0 0
M  V30 2 C 1.2474 0.7872 0.0 0
M  V30 3 C 2.4948 0.0605 0.0 0
M  V30 4 C 3.7423 0.8477 0.0 0
M  V30 5 C 4.9897 0.1211 0.0 0
M  V30 6 C 6.2372 0.9083 0.0 0
M  V30 7 C 7.4846 0.1816 0.0 0
M  V30 8 C 8.7321 0.9688 0.0 0
M  V30 9 C 8.6836 2.5191 0.0 0
M  V30 10 C 7.3393 3.3063 0.0 0
M  V30 11 C 7.2909 4.8565 0.0 0
M  V30 12 C 5.9465 5.6437 0.0 0
M  V30 13 C 5.8981 7.194 0.0 0
M  V30 END ATOM
M  V30 BEGIN BOND
M  V30 1 1 1 2
M  V30 2 1 2 3
M  V30 3 1 3 4
M  V30 4 1 4 5
M  V30 5 1 5 6
M  V30 6 1 6 7
M  V30 7 1 7 8
M  V30 8 2 8 9
M  V30 9 1 9 10
M  V30 10 1 10 11
M  V30 11 1 11 12
M  V30 12 1 12 13
M  V30 END BOND
M  V30 END CTAB
M  END
>  <Molecule Name>
(z)-7-dodecenol

>  <Molecule Name 2>
(z)-7-dodecenol

>  <Database>
Essential Oil Database

>  <InChI>
InChI=1S/C12H24O/c1-2-3-4-5-6-7-8-9-10-11-12-13/h5-6,13H,2-4,7-12H2,1H3/b6-5-

>  <InChI-Key>
WWDOVTHLTQFGOZ-WAYWQWQTSA-N

>  <Smiles>
CCCC/C=C\CCCCCCO

>  <Molecular Formula>
C12H24O

$$$$
(z)-9-tetradecenal
Actelion Java MolfileCreator 2.0

  0  0  0  0  0  0              0 V3000
M  V30 BEGIN CTAB
M  V30 COUNTS 15 14 0 0 0
M  V30 BEGIN ATOM
M  V30 1 O 0.0 0.0 0.0 0
M  V30 2 C 1.2526 0.7905 0.0 0
M  V30 3 C 2.5053 0.0608 0.0 0
M  V30 4 C 3.7579 0.8513 0.0 0
M  V30 5 C 5.0106 0.1216 0.0 0
M  V30 6 C 6.2632 0.9121 0.0 0
M  V30 7 C 7.5159 0.1824 0.0 0
M  V30 8 C 8.7686 0.9729 0.0 0
M  V30 9 C 10.0212 0.2432 0.0 0
M  V30 10 C 11.2739 1.0337 0.0 0
M  V30 11 C 11.2252 2.5904 0.0 0
M  V30 12 C 9.8753 3.3809 0.0 0
M  V30 13 C 9.8266 4.9376 0.0 0
M  V30 14 C 8.4767 5.716 0.0 0
M  V30 15 C 8.428 7.2727 0.0 0
M  V30 END ATOM
M  V30 BEGIN BOND
M  V30 1 2 1 2
M  V30 2 1 2 3
M  V30 3 1 3 4
M  V30 4 1 4 5
M  V30 5 1 5 6
M  V30 6 1 6 7
M  V30 7 1 7 8
M  V30 8 1 8 9
M  V30 9 1 9 10
M  V30 10 2 10 11
M  V30 11 1 11 12
M  V30 12 1 12 13
M  V30 13 1 13 14
M  V30 14 1 14 15
M  V30 END BOND
M  V30 END CTAB
M  END
>  <Molecule Name>
(z)-9-tetradecenal

>  <Molecule Name 2>
(z)-9-tetradecenal

>  <Database>
Essential Oil Database

>  <InChI>
InChI=1S/C14H26O/c1-2-3-4-5-6-7-8-9-10-11-12-13-14-15/h5-6,14H,2-4,7-13H2,1H3/b6-5-

>  <InChI-Key>
ANJAOCICJSRZSR-WAYWQWQTSA-N

>  <Smiles>
CCCC/C=C\CCCCCCCC=O

>  <Molecular Formula>
C14H26O

$$$$
1-(2,5-dimethyl-3-furyl)-ethanone
Actelion Java MolfileCreator 2.0

  0  0  0  0  0  0              0 V3000
M  V30 BEGIN CTAB
M  V30 COUNTS 10 10 0 0 0
M  V30 BEGIN ATOM
M  V30 1 O 0.0 0.0 0.0 0
M  V30 2 C 1.4488 -0.1095 0.0 0
M  V30 3 C 2.2767 1.1566 0.0 0
M  V30 4 C 2.0332 -1.4366 0.0 0
M  V30 5 C 3.7376 1.2053 0.0 0
M  V30 6 C 1.7531 2.6419 0.0 0
M  V30 7 O 4.1638 2.6906 0.0 0
M  V30 8 C 4.5655 0.0365 0.0 0
M  V30 9 C 2.9219 3.5672 0.0 0
M  V30 10 C 2.8732 5.1256 0.0 0
M  V30 END ATOM
M  V30 BEGIN BOND
M  V30 1 2 1 2
M  V30 2 1 2 3
M  V30 3 1 2 4
M  V30 4 2 3 5
M  V30 5 1 3 6
M  V30 6 1 5 7
M  V30 7 1 5 8
M  V30 8 2 6 9
M  V30 9 1 9 10
M  V30 10 1 7 9
M  V30 END BOND
M  V30 END CTAB
M  END
>  <Molecule Name>
1-(2,5-dimethyl-3-furyl)-ethanone

>  <Molecule Name 2>
1-(2,5-dimethyl-3-furyl)-ethanone

>  <Database>
Essential Oil Database

>  <InChI>
InChI=1S/C8H10O2/c1-5-4-8(6(2)9)7(3)10-5/h4H,1-3H3

>  <InChI-Key>
KBSVBCHYXYXDAG-UHFFFAOYSA-N

>  <Smiles>
CC(c1c(C)[o]c(C)c1)=O

>  <Molecular Formula>
C8H10O2

$$$$
1-heneicosene
Actelion Java MolfileCreator 2.0

  0  0  0  0  0  0              0 V3000
M  V30 BEGIN CTAB
M  V30 COUNTS 21 20 0 0 0
M  V30 BEGIN ATOM
M  V30 1 C 0.0 0.0 0.0 0
M  V30 2 C -1.3762 0.7956 0.0 0
M  V30 3 C 1.2902 0.7956 0.0 0
M  V30 4 C 2.5804 0.086 0.0 0
M  V30 5 C 3.8706 0.8816 0.0 0
M  V30 6 C 5.1608 0.172 0.0 0
M  V30 7 C 6.451 0.9676 0.0 0
M  V30 8 C 7.7412 0.258 0.0 0
M  V30 9 C 9.0314 1.0536 0.0 0
M  V30 10 C 10.3216 0.344 0.0 0
M  V30 11 C 11.6118 1.1396 0.0 0
M  V30 12 C 12.902 0.43 0.0 0
M  V30 13 C 14.1922 1.2256 0.0 0
M  V30 14 C 15.4825 0.516 0.0 0
M  V30 15 C 16.7727 1.3117 0.0 0
M  V30 16 C 18.0629 0.602 0.0 0
M  V30 17 C 19.3531 1.3977 0.0 0
M  V30 18 C 20.6433 0.6881 0.0 0
M  V30 19 C 21.9335 1.4837 0.0 0
M  V30 20 C 23.2237 0.7741 0.0 0
M  V30 21 C 24.5139 1.5697 0.0 0
M  V30 END ATOM
M  V30 BEGIN BOND
M  V30 1 2 1 2
M  V30 2 1 1 3
M  V30 3 1 3 4
M  V30 4 1 4 5
M  V30 5 1 5 6
M  V30 6 1 6 7
M  V30 7 1 7 8
M  V30 8 1 8 9
M  V30 9 1 9 10
M  V30 10 1 10 11
M  V30 11 1 11 12
M  V30 12 1 12 13
M  V30 13 1 13 14
M  V30 14 1 14 15
M  V30 15 1 15 16
M  V30 16 1 16 17
M  V30 17 1 17 18
M  V30 18 1 18 19
M  V30 19 1 19 20
M  V30 20 1 20 21
M  V30 END BOND
M  V30 END CTAB
M  END
>  <Molecule Name>
1-heneicosene

>  <Molecule Name 2>
1-heneicosene

>  <Database>
Essential Oil Database

>  <InChI>
InChI=1S/C21H42/c1-3-5-7-9-11-13-15-17-19-21-20-18-16-14-12-10-8-6-4-2/h3H,1,4-21H2,2H3

>  <InChI-Key>
JTOGFHAZQVDOAO-UHFFFAOYSA-N

>  <Smiles>
CCCCCCCCCCCCCCCCCCCC=C

>  <Molecular Formula>
C21H42

$$$$
2,3-dihydrofarnesol
Actelion Java MolfileCreator 2.0

  0  0  0  0  0  0              0 V3000
M  V30 BEGIN CTAB
M  V30 COUNTS 16 15 0 0 0
M  V30 BEGIN ATOM
M  V30 1 O 0.0 0.0 0.0 0
M  V30 2 C 1.2731 0.8034 0.0 0
M  V30 3 C 2.5463 0.0618 0.0 0
M  V30 4 C 3.8195 0.8652 0.0 0 CFG=2
M  V30 5 C 5.0927 0.1236 0.0 0
M  V30 6 C 3.7701 2.4474 0.0 0
M  V30 7 C 6.3659 0.927 0.0 0
M  V30 8 C 7.6391 0.1854 0.0 0
M  V30 9 C 7.5896 -1.2979 0.0 0
M  V30 10 C 8.8628 -2.0395 0.0 0
M  V30 11 C 6.2175 -2.0395 0.0 0
M  V30 12 C 8.8133 -3.5228 0.0 0
M  V30 13 C 10.0865 -4.2645 0.0 0
M  V30 14 C 10.0371 -5.7478 0.0 0
M  V30 15 C 11.3103 -6.4771 0.0 0
M  V30 16 C 8.665 -6.4771 0.0 0
M  V30 END ATOM
M  V30 BEGIN BOND
M  V30 1 1 1 2
M  V30 2 1 2 3
M  V30 3 1 3 4
M  V30 4 1 4 5
M  V30 5 1 4 6 CFG=1
M  V30 6 1 5 7
M  V30 7 1 7 8
M  V30 8 2 8 9 CFG=2
M  V30 9 1 9 10
M  V30 10 1 9 11
M  V30 11 1 10 12
M  V30 12 1 12 13
M  V30 13 2 13 14
M  V30 14 1 14 15
M  V30 15 1 14 16
M  V30 END BOND
M  V30 BEGIN COLLECTION
M  V30 MDLV30/STERAC1 ATOMS=(1 4)
M  V30 END COLLECTION
M  V30 END CTAB
M  END
>  <Molecule Name>
2,3-dihydrofarnesol

>  <Molecule Name 2>
2,3-dihydrofarnesol

>  <Database>
Essential Oil Database

>  <InChI>
InChI=1S/C15H28O/c1-13(2)7-5-8-14(3)9-6-10-15(4)11-12-16/h7,9,15-16H,5-6,8,10-12H2,1-4H3/t15-/m0/s1

>  <InChI-Key>
OOOOFOPLSIWRAR-HNNXBMFYSA-N

>  <Smiles>
CC(CCC=C(C)CCC=C(C)C)CCO

>  <Molecular Formula>
C15H28O

$$$$
2,4,6-trimethylpyridine
Actelion Java MolfileCreator 2.0

  0  0  0  0  0  0              0 V3000
M  V30 BEGIN CTAB
M  V30 COUNTS 9 9 0 0 0
M  V30 BEGIN ATOM
M  V30 1 N 0.0 0.0 0.0 0
M  V30 2 C -0.0482 -1.446 0.0 0
M  V30 3 C -1.3376 0.7712 0.0 0
M  V30 4 C -1.3858 -2.157 0.0 0
M  V30 5 C 1.193 -2.157 0.0 0
M  V30 6 C -2.6752 0.0602 0.0 0
M  V30 7 C -1.3858 2.3137 0.0 0
M  V30 8 C -2.7234 -1.3858 0.0 0
M  V30 9 C -4.061 -2.0968 0.0 0
M  V30 END ATOM
M  V30 BEGIN BOND
M  V30 1 2 1 2
M  V30 2 1 1 3
M  V30 3 1 2 4
M  V30 4 1 2 5
M  V30 5 2 3 6
M  V30 6 1 3 7
M  V30 7 2 4 8
M  V30 8 1 8 9
M  V30 9 1 6 8
M  V30 END BOND
M  V30 END CTAB
M  END
>  <Molecule Name>
2,4,6-trimethylpyridine

>  <Molecule Name 2>
2,4,6-trimethylpyridine

>  <Database>
Essential Oil Database

>  <InChI>
InChI=1S/C8H11N/c1-6-4-7(2)9-8(3)5-6/h4-5H,1-3H3

>  <InChI-Key>
BWZVCCNYKMEVEX-UHFFFAOYSA-N

>  <Smiles>
Cc1cc(C)nc(C)c1

>  <Molecular Formula>
C8H11N

$$$$
2-acetyl-5-methylfuran
Actelion Java MolfileCreator 2.0

  0  0  0  0  0  0              0 V3000
M  V30 BEGIN CTAB
M  V30 COUNTS 9 9 0 0 0
M  V30 BEGIN ATOM
M  V30 1 O 0.0 0.0 0.0 0
M  V30 2 C -1.4977 -0.1061 0.0 0
M  V30 3 C -2.394 1.1203 0.0 0
M  V30 4 C -2.1581 -1.3915 0.0 0
M  V30 5 O -1.9812 2.5591 0.0 0
M  V30 6 C -3.9035 1.1675 0.0 0
M  V30 7 C -3.2077 3.4553 0.0 0
M  V30 8 C -4.4106 2.6062 0.0 0
M  V30 9 C -3.2548 4.9648 0.0 0
M  V30 END ATOM
M  V30 BEGIN BOND
M  V30 1 2 1 2
M  V30 2 1 2 3
M  V30 3 1 2 4
M  V30 4 1 3 5
M  V30 5 2 3 6
M  V30 6 1 5 7
M  V30 7 1 6 8
M  V30 8 1 7 9
M  V30 9 2 7 8
M  V30 END BOND
M  V30 END CTAB
M  END
>  <Molecule Name>
2-acetyl-5-methylfuran

>  <Molecule Name 2>
2-acetyl-5-methylfuran

>  <Database>
Essential Oil Database

>  <InChI>
InChI=1S/C7H8O2/c1-5-3-4-7(9-5)6(2)8/h3-4H,1-2H3

>  <InChI-Key>
KEFJLCGVTHRGAH-UHFFFAOYSA-N

>  <Smiles>
CC(c1ccc(C)[o]1)=O

>  <Molecular Formula>
C7H8O2

$$$$
2-acetylthiazole
Actelion Java MolfileCreator 2.0

  0  0  0  0  0  0              0 V3000
M  V30 BEGIN CTAB
M  V30 COUNTS 8 8 0 0 0
M  V30 BEGIN ATOM
M  V30 1 S 0.0 0.0 0.0 0
M  V30 2 C 1.1736 0.9291 0.0 0
M  V30 3 C 0.4278 -1.3937 0.0 0
M  V30 4 N 2.3472 0.0978 0.0 0
M  V30 5 C 1.1247 2.4939 0.0 0
M  V30 6 C 1.8949 -1.3448 0.0 0
M  V30 7 O -0.2322 3.2886 0.0 0
M  V30 8 C 2.3839 3.2886 0.0 0
M  V30 END ATOM
M  V30 BEGIN BOND
M  V30 1 1 1 2
M  V30 2 1 1 3
M  V30 3 2 2 4
M  V30 4 1 2 5
M  V30 5 2 3 6
M  V30 6 2 5 7
M  V30 7 1 5 8
M  V30 8 1 4 6
M  V30 END BOND
M  V30 END CTAB
M  END
>  <Molecule Name>
2-acetylthiazole

>  <Molecule Name 2>
2-acetylthiazole

>  <Database>
Essential Oil Database

>  <InChI>
InChI=1S/C5H5NOS/c1-4(7)5-6-2-3-8-5/h2-3H,1H3

>  <InChI-Key>
MOMFXATYAINJML-UHFFFAOYSA-N

>  <Smiles>
CC(c1ncc[s]1)=O

>  <Molecular Formula>
C5H5NOS

$$$$
2-hexanol
Actelion Java MolfileCreator 2.0

  0  0  0  0  0  0              0 V3000
M  V30 BEGIN CTAB
M  V30 COUNTS 7 6 0 0 0
M  V30 BEGIN ATOM
M  V30 1 O 0.0 0.0 0.0 0
M  V30 2 C -0.0471 -1.4841 0.0 0 CFG=2
M  V30 3 C 1.2368 -2.1791 0.0 0
M  V30 4 C -1.4252 -2.1791 0.0 0
M  V30 5 C 2.5207 -1.3545 0.0 0
M  V30 6 C 3.8046 -2.0495 0.0 0
M  V30 7 C 5.0885 -1.225 0.0 0
M  V30 END ATOM
M  V30 BEGIN BOND
M  V30 1 1 2 1 CFG=3
M  V30 2 1 2 3
M  V30 3 1 2 4
M  V30 4 1 3 5
M  V30 5 1 5 6
M  V30 6 1 6 7
M  V30 END BOND
M  V30 BEGIN COLLECTION
M  V30 MDLV30/STERAC1 ATOMS=(1 2)
M  V30 END COLLECTION
M  V30 END CTAB
M  END
>  <Molecule Name>
2-hexanol

>  <Molecule Name 2>
2-hexanol

>  <Database>
Essential Oil Database

>  <InChI>
InChI=1S/C6H14O/c1-3-4-5-6(2)7/h6-7H,3-5H2,1-2H3/t6-/m0/s1

>  <InChI-Key>
QNVRIHYSUZMSGM-LURJTMIESA-N

>  <Smiles>
CCCCC(C)O

>  <Molecular Formula>
C6H14O

$$$$
2-nonadecanone
Actelion Java MolfileCreator 2.0

  0  0  0  0  0  0              0 V3000
M  V30 BEGIN CTAB
M  V30 COUNTS 20 19 0 0 0
M  V30 BEGIN ATOM
M  V30 1 O 0.0 0.0 0.0 0
M  V30 2 C -0.0494 1.5809 0.0 0
M  V30 3 C 1.2227 2.3837 0.0 0
M  V30 4 C -1.4203 2.3837 0.0 0
M  V30 5 C 2.4948 1.6426 0.0 0
M  V30 6 C 3.767 2.4454 0.0 0
M  V30 7 C 5.0391 1.7044 0.0 0
M  V30 8 C 6.3112 2.5072 0.0 0
M  V30 9 C 7.5834 1.7661 0.0 0
M  V30 10 C 8.8555 2.5689 0.0 0
M  V30 11 C 10.1276 1.8279 0.0 0
M  V30 12 C 11.3998 2.643 0.0 0
M  V30 13 C 12.6719 1.902 0.0 0
M  V30 14 C 13.9441 2.7048 0.0 0
M  V30 15 C 15.2162 1.9637 0.0 0
M  V30 16 C 16.4883 2.7665 0.0 0
M  V30 17 C 17.7605 2.0255 0.0 0
M  V30 18 C 19.0326 2.8283 0.0 0
M  V30 19 C 20.3047 2.0872 0.0 0
M  V30 20 C 21.5769 2.9024 0.0 0
M  V30 END ATOM
M  V30 BEGIN BOND
M  V30 1 2 1 2
M  V30 2 1 2 3
M  V30 3 1 2 4
M  V30 4 1 3 5
M  V30 5 1 5 6
M  V30 6 1 6 7
M  V30 7 1 7 8
M  V30 8 1 8 9
M  V30 9 1 9 10
M  V30 10 1 10 11
M  V30 11 1 11 12
M  V30 12 1 12 13
M  V30 13 1 13 14
M  V30 14 1 14 15
M  V30 15 1 15 16
M  V30 16 1 16 17
M  V30 17 1 17 18
M  V30 18 1 18 19
M  V30 19 1 19 20
M  V30 END BOND
M  V30 END CTAB
M  END
>  <Molecule Name>
2-nonadecanone

>  <Molecule Name 2>
2-nonadecanone

>  <Database>
Essential Oil Database

>  <InChI>
InChI=1S/C19H38O/c1-3-4-5-6-7-8-9-10-11-12-13-14-15-16-17-18-19(2)20/h3-18H2,1-2H3

>  <InChI-Key>
IEDKVDCIEARIIU-UHFFFAOYSA-N

>  <Smiles>
CCCCCCCCCCCCCCCCCC(C)=O

>  <Molecular Formula>
C19H38O

$$$$
3-methyl-2-butenol (prenol)
Actelion Java MolfileCreator 2.0

  0  0  0  0  0  0              0 V3000
M  V30 BEGIN CTAB
M  V30 COUNTS 12 11 0 0 0
M  V30 BEGIN ATOM
M  V30 1 O 0.0 0.0 0.0 0
M  V30 2 C -0.7672 1.3307 0.0 0
M  V30 3 C -0.0599 2.6615 0.0 0
M  V30 4 C -2.3018 1.3787 0.0 0
M  V30 5 C 1.3787 2.7095 0.0 0
M  V30 6 O -3.0811 2.7095 0.0 0
M  V30 7 C -3.0811 0.1438 0.0 0
M  V30 8 C 2.098 4.0403 0.0 0
M  V30 9 C 2.098 1.4746 0.0 0
M  V30 10 C -4.6157 0.1918 0.0 0
M  V30 11 C -5.395 -1.043 0.0 0
M  V30 12 C -5.395 1.5226 0.0 0
M  V30 END ATOM
M  V30 BEGIN BOND
M  V30 1 1 1 2
M  V30 2 1 2 3
M  V30 3 1 2 4
M  V30 4 2 3 5
M  V30 5 1 4 6
M  V30 6 1 4 7
M  V30 7 1 5 8
M  V30 8 1 5 9
M  V30 9 2 7 10
M  V30 10 1 10 11
M  V30 11 1 10 12
M  V30 END BOND
M  V30 END CTAB
M  END
>  <Molecule Name>
3-methyl-2-butenol (prenol)

>  <Molecule Name 2>
3-methyl-2-butenol (prenol)

>  <Database>
Essential Oil Database

>  <InChI>
InChI=1S/C10H18O2/c1-7(2)5-9(11)10(12)6-8(3)4/h5-6,9-12H,1-4H3

>  <InChI-Key>
WDZPWRPVUUAMPD-UHFFFAOYSA-N

>  <Smiles>
CC(C)=CC(C(C=C(C)C)O)O

>  <Molecular Formula>
C10H18O2

$$$$
3-methylbutyl propanoate
Actelion Java MolfileCreator 2.0

  0  0  0  0  0  0              0 V3000
M  V30 BEGIN CTAB
M  V30 COUNTS 10 9 0 0 0
M  V30 BEGIN ATOM
M  V30 1 O 0.0 0.0 0.0 0
M  V30 2 C -0.0487 1.5613 0.0 0
M  V30 3 O 1.2076 2.3542 0.0 0
M  V30 4 C -1.4027 2.3542 0.0 0
M  V30 5 C 2.464 1.6223 0.0 0
M  V30 6 C -2.7567 1.6223 0.0 0
M  V30 7 C 3.7204 2.4152 0.0 0
M  V30 8 C 4.9768 1.6833 0.0 0
M  V30 9 C 6.2332 2.4762 0.0 0
M  V30 10 C 4.928 0.2195 0.0 0
M  V30 END ATOM
M  V30 BEGIN BOND
M  V30 1 2 1 2
M  V30 2 1 2 3
M  V30 3 1 2 4
M  V30 4 1 3 5
M  V30 5 1 4 6
M  V30 6 1 5 7
M  V30 7 1 7 8
M  V30 8 1 8 9
M  V30 9 1 8 10
M  V30 END BOND
M  V30 END CTAB
M  END
>  <Molecule Name>
3-methylbutyl propanoate

>  <Molecule Name 2>
3-methylbutyl propanoate

>  <Database>
Essential Oil Database

>  <InChI>
InChI=1S/C8H16O2/c1-4-8(9)10-6-5-7(2)3/h7H,4-6H2,1-3H3

>  <InChI-Key>
XAOGXQMKWQFZEM-UHFFFAOYSA-N

>  <Smiles>
CCC(OCCC(C)C)=O

>  <Molecular Formula>
C8H16O2

$$$$
3-methylthiopropanal
Actelion Java MolfileCreator 2.0

  0  0  0  0  0  0              0 V3000
M  V30 BEGIN CTAB
M  V30 COUNTS 6 5 0 0 0
M  V30 BEGIN ATOM
M  V30 1 S 0.0 0.0 0.0 0
M  V30 2 C -1.3246 0.7658 0.0 0
M  V30 3 C 1.2418 0.7658 0.0 0
M  V30 4 C -2.6493 0.0827 0.0 0
M  V30 5 C -3.9739 0.8486 0.0 0
M  V30 6 O -5.2986 0.1655 0.0 0
M  V30 END ATOM
M  V30 BEGIN BOND
M  V30 1 1 1 2
M  V30 2 1 1 3
M  V30 3 1 2 4
M  V30 4 1 4 5
M  V30 5 2 5 6
M  V30 END BOND
M  V30 END CTAB
M  END
>  <Molecule Name>
3-methylthiopropanal

>  <Molecule Name 2>
3-methylthiopropanal

>  <Database>
Essential Oil Database

>  <InChI>
InChI=1S/C4H8OS/c1-6-4-2-3-5/h3H,2,4H2,1H3

>  <InChI-Key>
CLUWOWRTHNNBBU-UHFFFAOYSA-N

>  <Smiles>
CSCCC=O

>  <Molecular Formula>
C4H8OS

$$$$
3-undecanone
Actelion Java MolfileCreator 2.0

  0  0  0  0  0  0              0 V3000
M  V30 BEGIN CTAB
M  V30 COUNTS 12 11 0 0 0
M  V30 BEGIN ATOM
M  V30 1 O 0.0 0.0 0.0 0
M  V30 2 C -0.0465 -1.4648 0.0 0
M  V30 3 C 1.2207 -2.1973 0.0 0
M  V30 4 C -1.4067 -2.1973 0.0 0
M  V30 5 C 2.4879 -1.3718 0.0 0
M  V30 6 C -2.7669 -1.3718 0.0 0
M  V30 7 C 3.7551 -2.1043 0.0 0
M  V30 8 C 5.0224 -1.2788 0.0 0
M  V30 9 C 6.2896 -1.9996 0.0 0
M  V30 10 C 7.5569 -1.1742 0.0 0
M  V30 11 C 8.8241 -1.9066 0.0 0
M  V30 12 C 10.0913 -1.0812 0.0 0
M  V30 END ATOM
M  V30 BEGIN BOND
M  V30 1 2 1 2
M  V30 2 1 2 3
M  V30 3 1 2 4
M  V30 4 1 3 5
M  V30 5 1 4 6
M  V30 6 1 5 7
M  V30 7 1 7 8
M  V30 8 1 8 9
M  V30 9 1 9 10
M  V30 10 1 10 11
M  V30 11 1 11 12
M  V30 END BOND
M  V30 END CTAB
M  END
>  <Molecule Name>
3-undecanone

>  <Molecule Name 2>
3-undecanone

>  <Database>
Essential Oil Database

>  <InChI>
InChI=1S/C11H22O/c1-3-5-6-7-8-9-10-11(12)4-2/h3-10H2,1-2H3

>  <InChI-Key>
YNMZZHPSYMOGCI-UHFFFAOYSA-N

>  <Smiles>
CCCCCCCCC(CC)=O

>  <Molecular Formula>
C11H22O

$$$$
3-undecen-2-one
Actelion Java MolfileCreator 2.0

  0  0  0  0  0  0              0 V3000
M  V30 BEGIN CTAB
M  V30 COUNTS 12 11 0 0 0
M  V30 BEGIN ATOM
M  V30 1 O 0.0 0.0 0.0 0
M  V30 2 C -0.0491 1.5732 0.0 0
M  V30 3 C 1.2167 2.3721 0.0 0
M  V30 4 C -1.4134 2.3721 0.0 0
M  V30 5 C 2.4827 1.6346 0.0 0
M  V30 6 C 3.7486 2.4335 0.0 0
M  V30 7 C 5.0146 1.6961 0.0 0
M  V30 8 C 6.2805 2.495 0.0 0
M  V30 9 C 7.5465 1.7575 0.0 0
M  V30 10 C 8.8124 2.5564 0.0 0
M  V30 11 C 10.0784 1.819 0.0 0
M  V30 12 C 11.3443 2.6179 0.0 0
M  V30 END ATOM
M  V30 BEGIN BOND
M  V30 1 2 1 2
M  V30 2 1 2 3
M  V30 3 1 2 4
M  V30 4 2 3 5 CFG=2
M  V30 5 1 5 6
M  V30 6 1 6 7
M  V30 7 1 7 8
M  V30 8 1 8 9
M  V30 9 1 9 10
M  V30 10 1 10 11
M  V30 11 1 11 12
M  V30 END BOND
M  V30 END CTAB
M  END
>  <Molecule Name>
3-undecen-2-one

>  <Molecule Name 2>
3-undecen-2-one

>  <Database>
Essential Oil Database

>  <InChI>
InChI=1S/C11H20O/c1-3-4-5-6-7-8-9-10-11(2)12/h9-10H,3-8H2,1-2H3

>  <InChI-Key>
CCXHMPZXKYIXPU-UHFFFAOYSA-N

>  <Smiles>
CCCCCCCC=CC(C)=O

>  <Molecular Formula>
C11H20O

$$$$
4-hydroxy-4-methyl-2-pentanone
Actelion Java MolfileCreator 2.0

  0  0  0  0  0  0              0 V3000
M  V30 BEGIN CTAB
M  V30 COUNTS 8 7 0 0 0
M  V30 BEGIN ATOM
M  V30 1 O 0.0 0.0 0.0 0
M  V30 2 C 1.2513 -0.7167 0.0 0
M  V30 3 C 2.5026 0.0607 0.0 0
M  V30 4 C 1.2027 -2.1746 0.0 0
M  V30 5 C 2.454 1.6157 0.0 0
M  V30 6 O 0.899 1.6643 0.0 0
M  V30 7 C 2.4054 3.1708 0.0 0
M  V30 8 C 3.9118 1.6643 0.0 0
M  V30 END ATOM
M  V30 BEGIN BOND
M  V30 1 2 1 2
M  V30 2 1 2 3
M  V30 3 1 2 4
M  V30 4 1 3 5
M  V30 5 1 5 6
M  V30 6 1 5 7
M  V30 7 1 5 8
M  V30 END BOND
M  V30 END CTAB
M  END
>  <Molecule Name>
4-hydroxy-4-methyl-2-pentanone

>  <Molecule Name 2>
4-hydroxy-4-methyl-2-pentanone

>  <Database>
Essential Oil Database

>  <InChI>
InChI=1S/C6H12O2/c1-5(7)4-6(2,3)8/h8H,4H2,1-3H3

>  <InChI-Key>
SWXVUIWOUIDPGS-UHFFFAOYSA-N

>  <Smiles>
CC(C)(CC(C)=O)O

>  <Molecular Formula>
C6H12O2

$$$$
4-methyl-3-penten-2-one
Actelion Java MolfileCreator 2.0

  0  0  0  0  0  0              0 V3000
M  V30 BEGIN CTAB
M  V30 COUNTS 7 6 0 0 0
M  V30 BEGIN ATOM
M  V30 1 O 0.0 0.0 0.0 0
M  V30 2 C 0.719 -1.2552 0.0 0
M  V30 3 C -0.0609 -2.5104 0.0 0
M  V30 4 C 2.1813 -1.2064 0.0 0
M  V30 5 C -1.6208 -2.4616 0.0 0
M  V30 6 C -2.4129 -3.7168 0.0 0
M  V30 7 C -2.4129 -1.1089 0.0 0
M  V30 END ATOM
M  V30 BEGIN BOND
M  V30 1 2 1 2
M  V30 2 1 2 3
M  V30 3 1 2 4
M  V30 4 2 3 5
M  V30 5 1 5 6
M  V30 6 1 5 7
M  V30 END BOND
M  V30 END CTAB
M  END
>  <Molecule Name>
4-methyl-3-penten-2-one

>  <Molecule Name 2>
4-methyl-3-penten-2-one

>  <Database>
Essential Oil Database

>  <InChI>
InChI=1S/C6H10O/c1-5(2)4-6(3)7/h4H,1-3H3

>  <InChI-Key>
SHOJXDKTYKFBRD-UHFFFAOYSA-N

>  <Smiles>
CC(C)=CC(C)=O

>  <Molecular Formula>
C6H10O

$$$$
6-methylheptadecane
Actelion Java MolfileCreator 2.0

  0  0  0  0  0  0              0 V3000
M  V30 BEGIN CTAB
M  V30 COUNTS 18 17 0 0 0
M  V30 BEGIN ATOM
M  V30 1 C 0.0 0.0 0.0 0 CFG=2
M  V30 2 C 1.2621 0.8105 0.0 0
M  V30 3 C -1.3547 0.8105 0.0 0
M  V30 4 C -0.0463 -1.4589 0.0 0
M  V30 5 C 2.5242 0.1042 0.0 0
M  V30 6 C -2.7094 0.1042 0.0 0
M  V30 7 C 3.7863 0.9147 0.0 0
M  V30 8 C -4.0642 0.9147 0.0 0
M  V30 9 C 5.0484 0.2084 0.0 0
M  V30 10 C -5.4189 0.2084 0.0 0
M  V30 11 C 6.3105 1.0189 0.0 0
M  V30 12 C -6.7737 1.0189 0.0 0
M  V30 13 C 7.5726 0.2894 0.0 0
M  V30 14 C 8.8347 1.1 0.0 0
M  V30 15 C 10.0968 0.3705 0.0 0
M  V30 16 C 11.3589 1.181 0.0 0
M  V30 17 C 12.6211 0.4863 0.0 0
M  V30 18 C 13.8832 1.2968 0.0 0
M  V30 END ATOM
M  V30 BEGIN BOND
M  V30 1 1 1 2
M  V30 2 1 1 3
M  V30 3 1 1 4 CFG=1
M  V30 4 1 2 5
M  V30 5 1 3 6
M  V30 6 1 5 7
M  V30 7 1 6 8
M  V30 8 1 7 9
M  V30 9 1 8 10
M  V30 10 1 9 11
M  V30 11 1 10 12
M  V30 12 1 11 13
M  V30 13 1 13 14
M  V30 14 1 14 15
M  V30 15 1 15 16
M  V30 16 1 16 17
M  V30 17 1 17 18
M  V30 END BOND
M  V30 BEGIN COLLECTION
M  V30 MDLV30/STERAC1 ATOMS=(1 1)
M  V30 END COLLECTION
M  V30 END CTAB
M  END
>  <Molecule Name>
6-methylheptadecane

>  <Molecule Name 2>
6-methylheptadecane

>  <Database>
Essential Oil Database

>  <InChI>
InChI=1S/C18H38/c1-4-6-8-9-10-11-12-13-15-17-18(3)16-14-7-5-2/h18H,4-17H2,1-3H3/t18-/m0/s1

>  <InChI-Key>
RLXHXVUABXKBOE-SFHVURJKSA-N

>  <Smiles>
CCCCCCCCCCCC(C)CCCCC

>  <Molecular Formula>
C18H38

$$$$
dibenzofuran
Actelion Java MolfileCreator 2.0

  0  0  0  0  0  0              0 V3000
M  V30 BEGIN CTAB
M  V30 COUNTS 13 15 0 0 0
M  V30 BEGIN ATOM
M  V30 1 O 0.0 0.0 0.0 0
M  V30 2 C 1.149 0.9028 0.0 0
M  V30 3 C -1.2428 0.9028 0.0 0
M  V30 4 C 0.6331 2.3568 0.0 0
M  V30 5 C 2.5561 0.6331 0.0 0
M  V30 6 C -0.8207 2.3568 0.0 0
M  V30 7 C -2.7437 0.6331 0.0 0
M  V30 8 C 1.5712 3.4941 0.0 0
M  V30 9 C 3.4941 1.7705 0.0 0
M  V30 10 C -1.8526 3.4941 0.0 0
M  V30 11 C -3.7755 1.7705 0.0 0
M  V30 12 C 2.9782 3.2244 0.0 0
M  V30 13 C -3.3534 3.2244 0.0 0
M  V30 END ATOM
M  V30 BEGIN BOND
M  V30 1 1 1 2
M  V30 2 1 1 3
M  V30 3 2 2 4
M  V30 4 1 2 5
M  V30 5 2 3 6
M  V30 6 1 3 7
M  V30 7 1 4 8
M  V30 8 2 5 9
M  V30 9 1 6 10
M  V30 10 2 7 11
M  V30 11 2 8 12
M  V30 12 2 10 13
M  V30 13 1 4 6
M  V30 14 1 9 12
M  V30 15 1 11 13
M  V30 END BOND
M  V30 END CTAB
M  END
>  <Molecule Name>
dibenzofuran

>  <Molecule Name 2>
dibenzofuran

>  <Database>
Essential Oil Database

>  <InChI>
InChI=1S/C12H8O/c1-3-7-11-9(5-1)10-6-2-4-8-12(10)13-11/h1-8H

>  <InChI-Key>
TXCDCPKCNAJMEE-UHFFFAOYSA-N

>  <Smiles>
c(cc1)cc2c1[o]c1c2cccc1

>  <Molecular Formula>
C12H8O

$$$$
(e)-3-penten-2-one
Actelion Java MolfileCreator 2.0

  0  0  0  0  0  0              0 V3000
M  V30 BEGIN CTAB
M  V30 COUNTS 6 5 0 0 0
M  V30 BEGIN ATOM
M  V30 1 O 0.0 0.0 0.0 0
M  V30 2 C 0.7249 -1.2655 0.0 0
M  V30 3 C -0.0737 -2.531 0.0 0
M  V30 4 C 2.1993 -1.2163 0.0 0
M  V30 5 C -1.6464 -2.4818 0.0 0
M  V30 6 C -2.445 -3.7474 0.0 0
M  V30 END ATOM
M  V30 BEGIN BOND
M  V30 1 2 1 2
M  V30 2 1 2 3
M  V30 3 1 2 4
M  V30 4 2 3 5
M  V30 5 1 5 6
M  V30 END BOND
M  V30 END CTAB
M  END
>  <Molecule Name>
(e)-3-penten-2-one

>  <Molecule Name 2>
(e)-3-penten-2-one

>  <Database>
Essential Oil Database

>  <InChI>
InChI=1S/C5H8O/c1-3-4-5(2)6/h3-4H,1-2H3/b4-3+

>  <InChI-Key>
LABTWGUMFABVFG-ONEGZZNKSA-N

>  <Smiles>
C/C=C/C(C)=O

>  <Molecular Formula>
C5H8O

$$$$
(e,e)-2,4-octadienal
Actelion Java MolfileCreator 2.0

  0  0  0  0  0  0              0 V3000
M  V30 BEGIN CTAB
M  V30 COUNTS 9 8 0 0 0
M  V30 BEGIN ATOM
M  V30 1 O 0.0 0.0 0.0 0
M  V30 2 C 0.7154 -1.249 0.0 0
M  V30 3 C -0.0606 -2.4981 0.0 0
M  V30 4 C -1.6128 -2.4496 0.0 0
M  V30 5 C -2.4011 -3.6986 0.0 0
M  V30 6 C -3.9533 -3.6501 0.0 0
M  V30 7 C -4.7416 -4.8992 0.0 0
M  V30 8 C -6.2938 -4.8507 0.0 0
M  V30 9 C -7.082 -6.0998 0.0 0
M  V30 END ATOM
M  V30 BEGIN BOND
M  V30 1 2 1 2
M  V30 2 1 2 3
M  V30 3 2 3 4
M  V30 4 1 4 5
M  V30 5 2 5 6
M  V30 6 1 6 7
M  V30 7 1 7 8
M  V30 8 1 8 9
M  V30 END BOND
M  V30 END CTAB
M  END
>  <Molecule Name>
(e,e)-2,4-octadienal

>  <Molecule Name 2>
(e,e)-2,4-octadienal

>  <Database>
Essential Oil Database

>  <InChI>
InChI=1S/C8H12O/c1-2-3-4-5-6-7-8-9/h4-8H,2-3H2,1H3/b5-4+,7-6+

>  <InChI-Key>
DVVATNQISMINCX-YTXTXJHMSA-N

>  <Smiles>
CCC/C=C/C=C/C=O

>  <Molecular Formula>
C8H12O

$$$$
(e,z)-2,4-hexadienal
Actelion Java MolfileCreator 2.0

  0  0  0  0  0  0              0 V3000
M  V30 BEGIN CTAB
M  V30 COUNTS 7 6 0 0 0
M  V30 BEGIN ATOM
M  V30 1 O 0.0 0.0 0.0 0
M  V30 2 C 0.7113 -1.2417 0.0 0
M  V30 3 C -0.0602 -2.4835 0.0 0
M  V30 4 C -1.6034 -2.4353 0.0 0
M  V30 5 C -2.387 -1.097 0.0 0
M  V30 6 C -3.9302 -1.0488 0.0 0
M  V30 7 C -4.7138 -2.2906 0.0 0
M  V30 END ATOM
M  V30 BEGIN BOND
M  V30 1 2 1 2
M  V30 2 1 2 3
M  V30 3 2 3 4
M  V30 4 1 4 5
M  V30 5 2 5 6
M  V30 6 1 6 7
M  V30 END BOND
M  V30 END CTAB
M  END
>  <Molecule Name>
(e,z)-2,4-hexadienal

>  <Molecule Name 2>
(e,z)-2,4-hexadienal

>  <Database>
Essential Oil Database

>  <InChI>
InChI=1S/C6H8O/c1-2-3-4-5-6-7/h2-6H,1H3/b3-2-,5-4-

>  <InChI-Key>
BATOPAZDIZEVQF-LDIADDGTSA-N

>  <Smiles>
C/C=C\C=C/C=O

>  <Molecular Formula>
C6H8O

$$$$
gamma-dodecalactone
Actelion Java MolfileCreator 2.0

  0  0  0  0  0  0              0 V3000
M  V30 BEGIN CTAB
M  V30 COUNTS 14 14 0 0 0
M  V30 BEGIN ATOM
M  V30 1 O 0.0 0.0 0.0 0
M  V30 2 C -1.5023 0.1995 0.0 0
M  V30 3 O -2.5117 -0.8333 0.0 0
M  V30 4 C -2.277 1.5141 0.0 0
M  V30 5 C -3.8967 -0.176 0.0 0 CFG=2
M  V30 6 C -3.7559 1.2441 0.0 0
M  V30 7 C -5.2113 -0.8802 0.0 0
M  V30 8 C -6.5258 -0.1173 0.0 0
M  V30 9 C -7.8404 -0.8216 0.0 0
M  V30 10 C -9.155 -0.0469 0.0 0
M  V30 11 C -10.4696 -0.7511 0.0 0
M  V30 12 C -11.7841 0.0117 0.0 0
M  V30 13 C -13.0987 -0.6924 0.0 0
M  V30 14 C -14.4133 0.0704 0.0 0
M  V30 END ATOM
M  V30 BEGIN BOND
M  V30 1 2 1 2
M  V30 2 1 2 3
M  V30 3 1 2 4
M  V30 4 1 3 5
M  V30 5 1 4 6
M  V30 6 1 5 7 CFG=1
M  V30 7 1 7 8
M  V30 8 1 8 9
M  V30 9 1 9 10
M  V30 10 1 10 11
M  V30 11 1 11 12
M  V30 12 1 12 13
M  V30 13 1 13 14
M  V30 14 1 5 6
M  V30 END BOND
M  V30 BEGIN COLLECTION
M  V30 MDLV30/STERAC1 ATOMS=(1 5)
M  V30 END COLLECTION
M  V30 END CTAB
M  END
>  <Molecule Name>
gamma-dodecalactone

>  <Molecule Name 2>
gamma-dodecalactone

>  <Database>
Essential Oil Database

>  <InChI>
InChI=1S/C12H22O2/c1-2-3-4-5-6-7-8-11-9-10-12(13)14-11/h11H,2-10H2,1H3/t11-/m0/s1

>  <InChI-Key>
WGPCZPLRVAWXPW-NSHDSACASA-N

>  <Smiles>
CCCCCCCCC(CC1)OC1=O

>  <Molecular Formula>
C12H22O2

$$$$
heptadecane
Actelion Java MolfileCreator 2.0

  0  0  0  0  0  0              0 V3000
M  V30 BEGIN CTAB
M  V30 COUNTS 17 16 0 0 0
M  V30 BEGIN ATOM
M  V30 1 C 0.0 0.0 0.0 0
M  V30 2 C -1.3478 -0.6949 0.0 0
M  V30 3 C 1.2636 -0.6949 0.0 0
M  V30 4 C -2.6956 0.0842 0.0 0
M  V30 5 C 2.5272 0.0842 0.0 0
M  V30 6 C -4.0435 -0.6107 0.0 0
M  V30 7 C 3.7908 -0.6107 0.0 0
M  V30 8 C -5.3913 0.1684 0.0 0
M  V30 9 C 5.0544 0.1684 0.0 0
M  V30 10 C -6.7392 -0.5265 0.0 0
M  V30 11 C 6.318 -0.5265 0.0 0
M  V30 12 C -8.087 0.2527 0.0 0
M  V30 13 C 7.5816 0.2527 0.0 0
M  V30 14 C -9.4348 -0.4422 0.0 0
M  V30 15 C 8.8452 -0.4422 0.0 0
M  V30 16 C -10.7827 0.3369 0.0 0
M  V30 17 C 10.1088 0.3369 0.0 0
M  V30 END ATOM
M  V30 BEGIN BOND
M  V30 1 1 1 2
M  V30 2 1 1 3
M  V30 3 1 2 4
M  V30 4 1 3 5
M  V30 5 1 4 6
M  V30 6 1 5 7
M  V30 7 1 6 8
M  V30 8 1 7 9
M  V30 9 1 8 10
M  V30 10 1 9 11
M  V30 11 1 10 12
M  V30 12 1 11 13
M  V30 13 1 12 14
M  V30 14 1 13 15
M  V30 15 1 14 16
M  V30 16 1 15 17
M  V30 END BOND
M  V30 END CTAB
M  END
>  <Molecule Name>
heptadecane

>  <Molecule Name 2>
heptadecane

>  <Database>
Essential Oil Database

>  <InChI>
InChI=1S/C17H36/c1-3-5-7-9-11-13-15-17-16-14-12-10-8-6-4-2/h3-17H2,1-2H3

>  <InChI-Key>
NDJKXXJCMXVBJW-UHFFFAOYSA-N

>  <Smiles>
CCCCCCCCCCCCCCCCC

>  <Molecular Formula>
C17H36

$$$$
nonadecanal
Actelion Java MolfileCreator 2.0

  0  0  0  0  0  0              0 V3000
M  V30 BEGIN CTAB
M  V30 COUNTS 20 19 0 0 0
M  V30 BEGIN ATOM
M  V30 1 O 0.0 0.0 0.0 0
M  V30 2 C 1.2831 0.8146 0.0 0
M  V30 3 C 2.5662 0.0814 0.0 0
M  V30 4 C 3.8494 0.8961 0.0 0
M  V30 5 C 5.1325 0.1629 0.0 0
M  V30 6 C 6.4157 0.9776 0.0 0
M  V30 7 C 7.6988 0.2444 0.0 0
M  V30 8 C 8.9819 1.0591 0.0 0
M  V30 9 C 10.2651 0.3258 0.0 0
M  V30 10 C 11.5482 1.1405 0.0 0
M  V30 11 C 12.8314 0.4073 0.0 0
M  V30 12 C 14.1145 1.222 0.0 0
M  V30 13 C 15.3976 0.4888 0.0 0
M  V30 14 C 16.6808 1.3035 0.0 0
M  V30 15 C 17.9639 0.5702 0.0 0
M  V30 16 C 19.2471 1.3849 0.0 0
M  V30 17 C 20.5302 0.6517 0.0 0
M  V30 18 C 21.8134 1.4664 0.0 0
M  V30 19 C 23.0965 0.7332 0.0 0
M  V30 20 C 24.3796 1.5479 0.0 0
M  V30 END ATOM
M  V30 BEGIN BOND
M  V30 1 2 1 2
M  V30 2 1 2 3
M  V30 3 1 3 4
M  V30 4 1 4 5
M  V30 5 1 5 6
M  V30 6 1 6 7
M  V30 7 1 7 8
M  V30 8 1 8 9
M  V30 9 1 9 10
M  V30 10 1 10 11
M  V30 11 1 11 12
M  V30 12 1 12 13
M  V30 13 1 13 14
M  V30 14 1 14 15
M  V30 15 1 15 16
M  V30 16 1 16 17
M  V30 17 1 17 18
M  V30 18 1 18 19
M  V30 19 1 19 20
M  V30 END BOND
M  V30 END CTAB
M  END
>  <Molecule Name>
nonadecanal

>  <Molecule Name 2>
nonadecanal

>  <Database>
Essential Oil Database

>  <InChI>
InChI=1S/C19H38O/c1-2-3-4-5-6-7-8-9-10-11-12-13-14-15-16-17-18-19-20/h19H,2-18H2,1H3

>  <InChI-Key>
SXIYYZWCMUFWBW-UHFFFAOYSA-N

>  <Smiles>
CCCCCCCCCCCCCCCCCCC=O

>  <Molecular Formula>
C19H38O

$$$$
pentadecane
Actelion Java MolfileCreator 2.0

  0  0  0  0  0  0              0 V3000
M  V30 BEGIN CTAB
M  V30 COUNTS 15 14 0 0 0
M  V30 BEGIN ATOM
M  V30 1 C 0.0 0.0 0.0 0
M  V30 2 C -1.3451 0.7776 0.0 0
M  V30 3 C 1.2611 0.7776 0.0 0
M  V30 4 C -2.6903 0.084 0.0 0
M  V30 5 C 2.5222 0.084 0.0 0
M  V30 6 C -4.0355 0.8617 0.0 0
M  V30 7 C 3.7833 0.8617 0.0 0
M  V30 8 C -5.3807 0.1681 0.0 0
M  V30 9 C 5.0444 0.1681 0.0 0
M  V30 10 C -6.7259 0.9458 0.0 0
M  V30 11 C 6.3055 0.9458 0.0 0
M  V30 12 C -8.0711 0.2522 0.0 0
M  V30 13 C 7.5666 0.2522 0.0 0
M  V30 14 C -9.4163 1.0299 0.0 0
M  V30 15 C 8.8277 1.0299 0.0 0
M  V30 END ATOM
M  V30 BEGIN BOND
M  V30 1 1 1 2
M  V30 2 1 1 3
M  V30 3 1 2 4
M  V30 4 1 3 5
M  V30 5 1 4 6
M  V30 6 1 5 7
M  V30 7 1 6 8
M  V30 8 1 7 9
M  V30 9 1 8 10
M  V30 10 1 9 11
M  V30 11 1 10 12
M  V30 12 1 11 13
M  V30 13 1 12 14
M  V30 14 1 13 15
M  V30 END BOND
M  V30 END CTAB
M  END
>  <Molecule Name>
pentadecane

>  <Molecule Name 2>
pentadecane

>  <Database>
Essential Oil Database

>  <InChI>
InChI=1S/C15H32/c1-3-5-7-9-11-13-15-14-12-10-8-6-4-2/h3-15H2,1-2H3

>  <InChI-Key>
YCOZIPAWZNQLMR-UHFFFAOYSA-N

>  <Smiles>
CCCCCCCCCCCCCCC

>  <Molecular Formula>
C15H32

$$$$
pentadecanol
Actelion Java MolfileCreator 2.0

  0  0  0  0  0  0              0 V3000
M  V30 BEGIN CTAB
M  V30 COUNTS 16 15 0 0 0
M  V30 BEGIN ATOM
M  V30 1 O 0.0 0.0 0.0 0
M  V30 2 C 1.2828 0.8145 0.0 0
M  V30 3 C 2.5657 0.0814 0.0 0
M  V30 4 C 3.8486 0.8959 0.0 0
M  V30 5 C 5.1315 0.1629 0.0 0
M  V30 6 C 6.4144 0.9774 0.0 0
M  V30 7 C 7.6973 0.2443 0.0 0
M  V30 8 C 8.9802 1.0588 0.0 0
M  V30 9 C 10.2631 0.3258 0.0 0
M  V30 10 C 11.546 1.1403 0.0 0
M  V30 11 C 12.8288 0.4072 0.0 0
M  V30 12 C 14.1117 1.2217 0.0 0
M  V30 13 C 15.3946 0.4887 0.0 0
M  V30 14 C 16.6775 1.3032 0.0 0
M  V30 15 C 17.9604 0.5701 0.0 0
M  V30 16 C 19.2433 1.3847 0.0 0
M  V30 END ATOM
M  V30 BEGIN BOND
M  V30 1 1 1 2
M  V30 2 1 2 3
M  V30 3 1 3 4
M  V30 4 1 4 5
M  V30 5 1 5 6
M  V30 6 1 6 7
M  V30 7 1 7 8
M  V30 8 1 8 9
M  V30 9 1 9 10
M  V30 10 1 10 11
M  V30 11 1 11 12
M  V30 12 1 12 13
M  V30 13 1 13 14
M  V30 14 1 14 15
M  V30 15 1 15 16
M  V30 END BOND
M  V30 END CTAB
M  END
>  <Molecule Name>
pentadecanol

>  <Molecule Name 2>
pentadecanol

>  <Database>
Essential Oil Database

>  <InChI>
InChI=1S/C15H32O/c1-2-3-4-5-6-7-8-9-10-11-12-13-14-15-16/h16H,2-15H2,1H3

>  <InChI-Key>
REIUXOLGHVXAEO-UHFFFAOYSA-N

>  <Smiles>
CCCCCCCCCCCCCCCO

>  <Molecular Formula>
C15H32O

$$$$
pyridine
Actelion Java MolfileCreator 2.0

  0  0  0  0  0  0              0 V3000
M  V30 BEGIN CTAB
M  V30 COUNTS 6 6 0 0 0
M  V30 BEGIN ATOM
M  V30 1 N 0.0 0.0 0.0 0
M  V30 2 C 1.2872 -0.6967 0.0 0
M  V30 3 C -1.3817 -0.6967 0.0 0
M  V30 4 C 1.24 -2.1848 0.0 0
M  V30 5 C -1.4289 -2.1848 0.0 0
M  V30 6 C -0.1417 -2.8815 0.0 0
M  V30 END ATOM
M  V30 BEGIN BOND
M  V30 1 2 1 2
M  V30 2 1 1 3
M  V30 3 1 2 4
M  V30 4 2 3 5
M  V30 5 2 4 6
M  V30 6 1 5 6
M  V30 END BOND
M  V30 END CTAB
M  END
>  <Molecule Name>
pyridine

>  <Molecule Name 2>
pyridine

>  <Database>
Essential Oil Database

>  <InChI>
InChI=1S/C5H5N/c1-2-4-6-5-3-1/h1-5H

>  <InChI-Key>
JUJWROOIHBZHMG-UHFFFAOYSA-N

>  <Smiles>
c1ccncc1

>  <Molecular Formula>
C5H5N

$$$$
salicylaldehyde
Actelion Java MolfileCreator 2.0

  0  0  0  0  0  0              0 V3000
M  V30 BEGIN CTAB
M  V30 COUNTS 9 9 0 0 0
M  V30 BEGIN ATOM
M  V30 1 O 0.0 0.0 0.0 0
M  V30 2 C 1.276 0.8052 0.0 0
M  V30 3 C 2.5521 0.0743 0.0 0
M  V30 4 C 3.8281 0.8796 0.0 0
M  V30 5 C 2.5025 -1.4123 0.0 0
M  V30 6 O 3.7786 2.4653 0.0 0
M  V30 7 C 5.1042 0.1486 0.0 0
M  V30 8 C 3.7786 -2.1432 0.0 0
M  V30 9 C 5.0546 -1.338 0.0 0
M  V30 END ATOM
M  V30 BEGIN BOND
M  V30 1 2 1 2
M  V30 2 1 2 3
M  V30 3 2 3 4
M  V30 4 1 3 5
M  V30 5 1 4 6
M  V30 6 1 4 7
M  V30 7 2 5 8
M  V30 8 2 7 9
M  V30 9 1 8 9
M  V30 END BOND
M  V30 END CTAB
M  END
>  <Molecule Name>
salicylaldehyde

>  <Molecule Name 2>
salicylaldehyde

>  <Database>
Essential Oil Database

>  <InChI>
InChI=1S/C7H6O2/c8-5-6-3-1-2-4-7(6)9/h1-5,9H

>  <InChI-Key>
SMQUZDBALVYZAC-UHFFFAOYSA-N

>  <Smiles>
Oc1c(C=O)cccc1

>  <Molecular Formula>
C7H6O2

$$$$
(z)-2-pentenol
Actelion Java MolfileCreator 2.0

  0  0  0  0  0  0              0 V3000
M  V30 BEGIN CTAB
M  V30 COUNTS 6 5 0 0 0
M  V30 BEGIN ATOM
M  V30 1 O 0.0 0.0 0.0 0
M  V30 2 C -1.5151 0.0473 0.0 0
M  V30 3 C -2.2727 1.3613 0.0 0
M  V30 4 C -3.7879 1.4086 0.0 0
M  V30 5 C -4.5455 0.1893 0.0 0
M  V30 6 C -6.0607 0.2367 0.0 0
M  V30 END ATOM
M  V30 BEGIN BOND
M  V30 1 1 1 2
M  V30 2 1 2 3
M  V30 3 2 3 4
M  V30 4 1 4 5
M  V30 5 1 5 6
M  V30 END BOND
M  V30 END CTAB
M  END
>  <Molecule Name>
(z)-2-pentenol

>  <Molecule Name 2>
(z)-2-pentenol

>  <Database>
Essential Oil Database

>  <InChI>
InChI=1S/C5H10O/c1-2-3-4-5-6/h3-4,6H,2,5H2,1H3/b4-3-

>  <InChI-Key>
BTSIZIIPFNVMHF-ARJAWSKDSA-N

>  <Smiles>
CC/C=C\CO

>  <Molecular Formula>
C5H10O

$$$$
(z)-9-hexadecenol
Actelion Java MolfileCreator 2.0

  0  0  0  0  0  0              0 V3000
M  V30 BEGIN CTAB
M  V30 COUNTS 17 16 0 0 0
M  V30 BEGIN ATOM
M  V30 1 O 0.0 0.0 0.0 0
M  V30 2 C 0.6916 1.3714 0.0 0
M  V30 3 C 2.1685 1.4183 0.0 0
M  V30 4 C 2.8602 2.7898 0.0 0
M  V30 5 C 4.3371 2.8367 0.0 0
M  V30 6 C 5.0288 4.2082 0.0 0
M  V30 7 C 6.5057 4.2551 0.0 0
M  V30 8 C 7.2091 2.9774 0.0 0
M  V30 9 C 6.4002 1.6997 0.0 0
M  V30 10 C 7.1036 0.4219 0.0 0
M  V30 11 C 8.5806 0.4688 0.0 0
M  V30 12 C 9.2839 1.8403 0.0 0
M  V30 13 C 10.7609 1.8872 0.0 0
M  V30 14 C 11.4525 3.2587 0.0 0
M  V30 15 C 12.9295 3.3056 0.0 0
M  V30 16 C 13.6328 4.6771 0.0 0
M  V30 17 C 15.1098 4.724 0.0 0
M  V30 END ATOM
M  V30 BEGIN BOND
M  V30 1 1 1 2
M  V30 2 1 2 3
M  V30 3 1 3 4
M  V30 4 1 4 5
M  V30 5 1 5 6
M  V30 6 1 6 7
M  V30 7 1 7 8
M  V30 8 1 8 9
M  V30 9 1 9 10
M  V30 10 2 10 11
M  V30 11 1 11 12
M  V30 12 1 12 13
M  V30 13 1 13 14
M  V30 14 1 14 15
M  V30 15 1 15 16
M  V30 16 1 16 17
M  V30 END BOND
M  V30 END CTAB
M  END
>  <Molecule Name>
(z)-9-hexadecenol

>  <Molecule Name 2>
(z)-9-hexadecenol

>  <Database>
Essential Oil Database

>  <InChI>
InChI=1S/C16H32O/c1-2-3-4-5-6-7-8-9-10-11-12-13-14-15-16-17/h7-8,17H,2-6,9-16H2,1H3/b8-7-

>  <InChI-Key>
LBIYNOAMNIKVKF-FPLPWBNLSA-N

>  <Smiles>
CCCCCC/C=C\CCCCCCCCO

>  <Molecular Formula>
C16H32O

$$$$
3,5-nonadiyne
Actelion Java MolfileCreator 2.0

  0  0  0  0  0  0              0 V3000
M  V30 BEGIN CTAB
M  V30 COUNTS 9 8 0 0 0
M  V30 BEGIN ATOM
M  V30 1 C 0.0 0.0 0.0 0
M  V30 2 C 1.4512 0.0483 0.0 0
M  V30 3 C -1.548 0.0483 0.0 0
M  V30 4 C 2.9025 0.0967 0.0 0
M  V30 5 C -3.096 0.0967 0.0 0
M  V30 6 C 4.3538 0.1451 0.0 0
M  V30 7 C -3.8822 1.4391 0.0 0
M  V30 8 C 5.0795 -1.1005 0.0 0
M  V30 9 C -5.4302 1.4875 0.0 0
M  V30 END ATOM
M  V30 BEGIN BOND
M  V30 1 1 1 2
M  V30 2 3 1 3
M  V30 3 3 2 4
M  V30 4 1 3 5
M  V30 5 1 4 6
M  V30 6 1 5 7
M  V30 7 1 6 8
M  V30 8 1 7 9
M  V30 END BOND
M  V30 END CTAB
M  END
>  <Molecule Name>
3,5-nonadiyne

>  <Molecule Name 2>
3,5-nonadiyne

>  <Database>
Essential Oil Database

>  <InChI>
InChI=1S/C9H12/c1-3-5-7-9-8-6-4-2/h3-5H2,1-2H3

>  <InChI-Key>
CSPPPXQLLNDWIT-UHFFFAOYSA-N

>  <Smiles>
CCCC#CC#CCC

>  <Molecular Formula>
C9H12

$$$$
4-isopropyl-6-methyl-1,2,3,4-tetrahydronaphthalen-1-one
Actelion Java MolfileCreator 2.0

  0  0  0  0  0  0              0 V3000
M  V30 BEGIN CTAB
M  V30 COUNTS 15 16 0 0 0
M  V30 BEGIN ATOM
M  V30 1 O 0.0 0.0 0.0 0
M  V30 2 C -0.0472 1.513 0.0 0
M  V30 3 C -1.3593 2.2813 0.0 0
M  V30 4 C 1.1702 2.2813 0.0 0
M  V30 5 C -1.4066 3.7943 0.0 0
M  V30 6 C -2.6714 1.5721 0.0 0
M  V30 7 C 1.1229 3.7943 0.0 0
M  V30 8 C -2.7187 4.5627 0.0 0
M  V30 9 C -0.1891 4.5627 0.0 0 CFG=1
M  V30 10 C -3.9835 2.3404 0.0 0
M  V30 11 C -4.0307 3.8653 0.0 0
M  V30 12 C -0.2364 6.0757 0.0 0
M  V30 13 C -5.3428 4.6336 0.0 0
M  V30 14 C -1.5484 6.844 0.0 0
M  V30 15 C 0.9811 6.844 0.0 0
M  V30 END ATOM
M  V30 BEGIN BOND
M  V30 1 2 1 2
M  V30 2 1 2 3
M  V30 3 1 2 4
M  V30 4 2 3 5
M  V30 5 1 3 6
M  V30 6 1 4 7
M  V30 7 1 5 8
M  V30 8 1 5 9
M  V30 9 2 6 10
M  V30 10 2 8 11
M  V30 11 1 9 12 CFG=3
M  V30 12 1 11 13
M  V30 13 1 12 14
M  V30 14 1 12 15
M  V30 15 1 7 9
M  V30 16 1 10 11
M  V30 END BOND
M  V30 BEGIN COLLECTION
M  V30 MDLV30/STERAC1 ATOMS=(1 9)
M  V30 END COLLECTION
M  V30 END CTAB
M  END
>  <Molecule Name>
4-isopropyl-6-methyl-1,2,3,4-tetrahydronaphthalen-1-one

>  <Molecule Name 2>
4-isopropyl-6-methyl-1,2,3,4-tetrahydronaphthalen-1-one

>  <Database>
Essential Oil Database

>  <InChI>
InChI=1S/C14H18O/c1-9(2)11-6-7-14(15)12-5-4-10(3)8-13(11)12/h4-5,8-9,11H,6-7H2,1-3H3/t11-/m0/s1

>  <InChI-Key>
KIZXBPVAPQXAMH-NSHDSACASA-N

>  <Smiles>
CC(C)C(CC1)c(cc(C)cc2)c2C1=O

>  <Molecular Formula>
C14H18O

$$$$
(e)-3,5-nonadiyne-7-ene
Actelion Java MolfileCreator 2.0

  0  0  0  0  0  0              0 V3000
M  V30 BEGIN CTAB
M  V30 COUNTS 9 8 0 0 0
M  V30 BEGIN ATOM
M  V30 1 C 0.0 0.0 0.0 0
M  V30 2 C 0.7265 1.344 0.0 0
M  V30 3 C -0.7749 -1.2471 0.0 0
M  V30 4 C 1.4409 2.688 0.0 0
M  V30 5 C -1.5619 -2.4943 0.0 0
M  V30 6 C 2.1674 4.0321 0.0 0
M  V30 7 C -3.1118 -2.4459 0.0 0
M  V30 8 C 3.6204 4.0805 0.0 0
M  V30 9 C -3.8989 -3.693 0.0 0
M  V30 END ATOM
M  V30 BEGIN BOND
M  V30 1 1 1 2
M  V30 2 3 1 3
M  V30 3 3 2 4
M  V30 4 1 3 5
M  V30 5 1 4 6
M  V30 6 2 5 7
M  V30 7 1 6 8
M  V30 8 1 7 9
M  V30 END BOND
M  V30 END CTAB
M  END
>  <Molecule Name>
(e)-3,5-nonadiyne-7-ene

>  <Molecule Name 2>
(e)-3,5-nonadiyne-7-ene

>  <Database>
Essential Oil Database

>  <InChI>
InChI=1S/C9H10/c1-3-5-7-9-8-6-4-2/h3,5H,4H2,1-2H3/b5-3+

>  <InChI-Key>
QKSKEXOWXUTVPR-HWKANZROSA-N

>  <Smiles>
CCC#CC#C/C=C/C

>  <Molecular Formula>
C9H10

$$$$
1-decene
Actelion Java MolfileCreator 2.0

  0  0  0  0  0  0              0 V3000
M  V30 BEGIN CTAB
M  V30 COUNTS 10 9 0 0 0
M  V30 BEGIN ATOM
M  V30 1 C 0.0 0.0 0.0 0
M  V30 2 C -1.376 -0.7095 0.0 0
M  V30 3 C 1.29 -0.7095 0.0 0
M  V30 4 C 2.5801 0.086 0.0 0
M  V30 5 C 3.8701 -0.6235 0.0 0
M  V30 6 C 5.1602 0.172 0.0 0
M  V30 7 C 6.4503 -0.5375 0.0 0
M  V30 8 C 7.7403 0.258 0.0 0
M  V30 9 C 9.0304 -0.4515 0.0 0
M  V30 10 C 10.3204 0.344 0.0 0
M  V30 END ATOM
M  V30 BEGIN BOND
M  V30 1 2 1 2
M  V30 2 1 1 3
M  V30 3 1 3 4
M  V30 4 1 4 5
M  V30 5 1 5 6
M  V30 6 1 6 7
M  V30 7 1 7 8
M  V30 8 1 8 9
M  V30 9 1 9 10
M  V30 END BOND
M  V30 END CTAB
M  END
>  <Molecule Name>
1-decene

>  <Molecule Name 2>
1-decene

>  <Database>
Essential Oil Database

>  <InChI>
InChI=1S/C10H20/c1-3-5-7-9-10-8-6-4-2/h3H,1,4-10H2,2H3

>  <InChI-Key>
AFFLGGQVNFXPEV-UHFFFAOYSA-N

>  <Smiles>
CCCCCCCCC=C

>  <Molecular Formula>
C10H20

$$$$
2,5-dimethoxy-p-cymene
Actelion Java MolfileCreator 2.0

  0  0  0  0  0  0              0 V3000
M  V30 BEGIN CTAB
M  V30 COUNTS 14 14 0 0 0
M  V30 BEGIN ATOM
M  V30 1 O 0.0 0.0 0.0 0
M  V30 2 C 1.2631 0.7848 0.0 0
M  V30 3 C -0.049 -1.4715 0.0 0
M  V30 4 C 2.5262 0.0613 0.0 0
M  V30 5 C 1.214 2.3545 0.0 0
M  V30 6 C 3.7893 0.8461 0.0 0
M  V30 7 C 2.4771 -1.4102 0.0 0
M  V30 8 C 2.4771 3.1516 0.0 0
M  V30 9 C 3.7403 2.4158 0.0 0
M  V30 10 C 1.1159 -2.146 0.0 0
M  V30 11 C 3.7403 -2.146 0.0 0
M  V30 12 C 2.4281 4.7213 0.0 0
M  V30 13 O 5.0034 3.2129 0.0 0
M  V30 14 C 6.2665 2.4894 0.0 0
M  V30 END ATOM
M  V30 BEGIN BOND
M  V30 1 1 1 2
M  V30 2 1 1 3
M  V30 3 2 2 4
M  V30 4 1 2 5
M  V30 5 1 4 6
M  V30 6 1 4 7
M  V30 7 2 5 8
M  V30 8 2 6 9
M  V30 9 1 7 10
M  V30 10 1 7 11
M  V30 11 1 8 12
M  V30 12 1 9 13
M  V30 13 1 13 14
M  V30 14 1 8 9
M  V30 END BOND
M  V30 END CTAB
M  END
>  <Molecule Name>
2,5-dimethoxy-p-cymene

>  <Molecule Name 2>
2,5-dimethoxy-p-cymene

>  <Database>
Essential Oil Database

>  <InChI>
InChI=1S/C12H18O2/c1-8(2)10-7-11(13-4)9(3)6-12(10)14-5/h6-8H,1-5H3

>  <InChI-Key>
VTRMVHBUTNPBTP-UHFFFAOYSA-N

>  <Smiles>
CC(C)c(cc(c(C)c1)OC)c1OC

>  <Molecular Formula>
C12H18O2

$$$$
3,5-octadiyne
Actelion Java MolfileCreator 2.0

  0  0  0  0  0  0              0 V3000
M  V30 BEGIN CTAB
M  V30 COUNTS 8 7 0 0 0
M  V30 BEGIN ATOM
M  V30 1 C 0.0 0.0 0.0 0
M  V30 2 C -1.5407 0.0481 0.0 0
M  V30 3 C 1.4444 0.0481 0.0 0
M  V30 4 C -3.0815 0.0962 0.0 0
M  V30 5 C 2.8889 0.0962 0.0 0
M  V30 6 C -4.6222 0.1444 0.0 0
M  V30 7 C 3.6111 1.4324 0.0 0
M  V30 8 C -5.4047 -1.0953 0.0 0
M  V30 END ATOM
M  V30 BEGIN BOND
M  V30 1 1 1 2
M  V30 2 3 1 3
M  V30 3 3 2 4
M  V30 4 1 3 5
M  V30 5 1 4 6
M  V30 6 1 5 7
M  V30 7 1 6 8
M  V30 END BOND
M  V30 END CTAB
M  END
>  <Molecule Name>
3,5-octadiyne

>  <Molecule Name 2>
3,5-octadiyne

>  <Database>
Essential Oil Database

>  <InChI>
InChI=1S/C8H10/c1-3-5-7-8-6-4-2/h3-4H2,1-2H3

>  <InChI-Key>
LILZEAJBVQOINI-UHFFFAOYSA-N

>  <Smiles>
CCC#CC#CCC

>  <Molecular Formula>
C8H10

$$$$
(z)-3,5-nonadiyne-7-ene
Actelion Java MolfileCreator 2.0

  0  0  0  0  0  0              0 V3000
M  V30 BEGIN CTAB
M  V30 COUNTS 9 8 0 0 0
M  V30 BEGIN ATOM
M  V30 1 C 0.0 0.0 0.0 0
M  V30 2 C 0.7322 -1.257 0.0 0
M  V30 3 C -0.781 1.3546 0.0 0
M  V30 4 C 1.4522 -2.514 0.0 0
M  V30 5 C -1.5621 2.7092 0.0 0
M  V30 6 C 2.1845 -3.771 0.0 0
M  V30 7 C -3.1242 2.758 0.0 0
M  V30 8 C 3.6489 -3.7222 0.0 0
M  V30 9 C -3.9174 1.501 0.0 0
M  V30 END ATOM
M  V30 BEGIN BOND
M  V30 1 1 1 2
M  V30 2 3 1 3
M  V30 3 3 2 4
M  V30 4 1 3 5
M  V30 5 1 4 6
M  V30 6 2 5 7
M  V30 7 1 6 8
M  V30 8 1 7 9
M  V30 END BOND
M  V30 END CTAB
M  END
>  <Molecule Name>
(z)-3,5-nonadiyne-7-ene

>  <Molecule Name 2>
(z)-3,5-nonadiyne-7-ene

>  <Database>
Essential Oil Database

>  <InChI>
InChI=1S/C9H10/c1-3-5-7-9-8-6-4-2/h3,5H,4H2,1-2H3/b5-3-

>  <InChI-Key>
QKSKEXOWXUTVPR-HYXAFXHYSA-N

>  <Smiles>
CCC#CC#C/C=C\C

>  <Molecular Formula>
C9H10

$$$$
3-(z)-butylidene-4,5,6,7-tetrahydro -cis-6,7-dihydroxyphthalide
Actelion Java MolfileCreator 2.0

  0  0  0  0  0  0              0 V3000
M  V30 BEGIN CTAB
M  V30 COUNTS 16 17 0 0 0
M  V30 BEGIN ATOM
M  V30 1 O 0.0 0.0 0.0 0
M  V30 2 C 0.4212 1.4683 0.0 0
M  V30 3 O -0.4934 2.72 0.0 0
M  V30 4 C 1.7933 1.9858 0.0 0
M  V30 5 C 0.3249 3.9717 0.0 0
M  V30 6 C 1.7451 3.5264 0.0 0
M  V30 7 C 3.033 1.2637 0.0 0 CFG=1
M  V30 8 C -0.1925 5.4401 0.0 0
M  V30 9 C 2.9848 4.3087 0.0 0
M  V30 10 O 2.9848 -0.1805 0.0 0
M  V30 11 C 4.2726 2.046 0.0 0 CFG=2
M  V30 12 C -1.697 5.8012 0.0 0
M  V30 13 C 4.2245 3.5866 0.0 0
M  V30 14 O 5.5123 1.3239 0.0 0
M  V30 15 C -2.2145 7.2695 0.0 0
M  V30 16 C -3.719 7.6306 0.0 0
M  V30 END ATOM
M  V30 BEGIN BOND
M  V30 1 2 1 2
M  V30 2 1 2 3
M  V30 3 1 2 4
M  V30 4 1 3 5
M  V30 5 2 4 6
M  V30 6 1 4 7
M  V30 7 2 5 8 CFG=2
M  V30 8 1 6 9
M  V30 9 1 7 10 CFG=3
M  V30 10 1 7 11
M  V30 11 1 8 12
M  V30 12 1 9 13
M  V30 13 1 11 14 CFG=3
M  V30 14 1 12 15
M  V30 15 1 15 16
M  V30 16 1 5 6
M  V30 17 1 11 13
M  V30 END BOND
M  V30 BEGIN COLLECTION
M  V30 MDLV30/STERAC1 ATOMS=(1 7)
M  V30 MDLV30/STERAC2 ATOMS=(1 11)
M  V30 END COLLECTION
M  V30 END CTAB
M  END
>  <Molecule Name>
3-(z)-butylidene-4,5,6,7-tetrahydro -cis-6,7-dihydroxyphthalide

>  <Molecule Name 2>
3-(z)-butylidene-4,5,6,7-tetrahydro -cis-6,7-dihydroxyphthalide

>  <Database>
Essential Oil Database

>  <InChI>
InChI=1S/C12H16O4/c1-2-3-4-9-7-5-6-8(13)11(14)10(7)12(15)16-9/h4,8,11,13-14H,2-3,5-6H2,1H3/t8-,11-/m0/s1

>  <InChI-Key>
DQNGMIQSXNGHOA-KWQFWETISA-N

>  <Smiles>
CCCC=C(C(CCC1O)=C2C1O)OC2=O

>  <Molecular Formula>
C12H16O4

$$$$
decyl isobutyrate
Actelion Java MolfileCreator 2.0

  0  0  0  0  0  0              0 V3000
M  V30 BEGIN CTAB
M  V30 COUNTS 16 15 0 0 0
M  V30 BEGIN ATOM
M  V30 1 O 0.0 0.0 0.0 0
M  V30 2 C -0.049 1.5701 0.0 0
M  V30 3 O 1.2144 2.3675 0.0 0
M  V30 4 C -1.4106 2.3675 0.0 0
M  V30 5 C 2.4779 1.6437 0.0 0
M  V30 6 C -2.7723 1.6437 0.0 0
M  V30 7 C -1.4597 3.9376 0.0 0
M  V30 8 C 3.7413 2.4411 0.0 0
M  V30 9 C 5.0048 1.7173 0.0 0
M  V30 10 C 6.2683 2.5147 0.0 0
M  V30 11 C 7.5318 1.7909 0.0 0
M  V30 12 C 8.7953 2.5883 0.0 0
M  V30 13 C 10.0588 1.8645 0.0 0
M  V30 14 C 11.3223 2.6496 0.0 0
M  V30 15 C 12.5858 1.9258 0.0 0
M  V30 16 C 13.8493 2.7232 0.0 0
M  V30 END ATOM
M  V30 BEGIN BOND
M  V30 1 2 1 2
M  V30 2 1 2 3
M  V30 3 1 2 4
M  V30 4 1 3 5
M  V30 5 1 4 6
M  V30 6 1 4 7
M  V30 7 1 5 8
M  V30 8 1 8 9
M  V30 9 1 9 10
M  V30 10 1 10 11
M  V30 11 1 11 12
M  V30 12 1 12 13
M  V30 13 1 13 14
M  V30 14 1 14 15
M  V30 15 1 15 16
M  V30 END BOND
M  V30 END CTAB
M  END
>  <Molecule Name>
decyl isobutyrate

>  <Molecule Name 2>
decyl isobutyrate

>  <Database>
Essential Oil Database

>  <InChI>
InChI=1S/C14H28O2/c1-4-5-6-7-8-9-10-11-12-16-14(15)13(2)3/h13H,4-12H2,1-3H3

>  <InChI-Key>
HGOZECVJNYXKMC-UHFFFAOYSA-N

>  <Smiles>
CCCCCCCCCCOC(C(C)C)=O

>  <Molecular Formula>
C14H28O2

$$$$
phenyl pentanone
Actelion Java MolfileCreator 2.0

  0  0  0  0  0  0              0 V3000
M  V30 BEGIN CTAB
M  V30 COUNTS 12 12 0 0 0
M  V30 BEGIN ATOM
M  V30 1 O 0.0 0.0 0.0 0
M  V30 2 C -0.0493 1.5783 0.0 0
M  V30 3 C 1.2207 2.3798 0.0 0
M  V30 4 C -1.418 2.3798 0.0 0
M  V30 5 C 2.4907 1.6399 0.0 0
M  V30 6 C 3.7608 2.4414 0.0 0
M  V30 7 C 5.0308 1.7016 0.0 0
M  V30 8 C 6.3009 2.5031 0.0 0
M  V30 9 C 4.9815 0.2219 0.0 0
M  V30 10 C 7.5709 1.7632 0.0 0
M  V30 11 C 6.2516 -0.5055 0.0 0
M  V30 12 C 7.5216 0.2836 0.0 0
M  V30 END ATOM
M  V30 BEGIN BOND
M  V30 1 2 1 2
M  V30 2 1 2 3
M  V30 3 1 2 4
M  V30 4 1 3 5
M  V30 5 1 5 6
M  V30 6 1 6 7
M  V30 7 2 7 8
M  V30 8 1 7 9
M  V30 9 1 8 10
M  V30 10 2 9 11
M  V30 11 2 10 12
M  V30 12 1 11 12
M  V30 END BOND
M  V30 END CTAB
M  END
>  <Molecule Name>
phenyl pentanone

>  <Molecule Name 2>
phenyl pentanone

>  <Database>
Essential Oil Database

>  <InChI>
InChI=1S/C11H14O/c1-10(12)6-5-9-11-7-3-2-4-8-11/h2-4,7-8H,5-6,9H2,1H3

>  <InChI-Key>
DGMYRPFYNFQCHM-UHFFFAOYSA-N

>  <Smiles>
CC(CCCc1ccccc1)=O

>  <Molecular Formula>
C11H14O

$$$$
tridecylacetate
Actelion Java MolfileCreator 2.0

  0  0  0  0  0  0              0 V3000
M  V30 BEGIN CTAB
M  V30 COUNTS 17 16 0 0 0
M  V30 BEGIN ATOM
M  V30 1 O 0.0 0.0 0.0 0
M  V30 2 C -0.0472 -1.4885 0.0 0
M  V30 3 O -1.4294 -2.1855 0.0 0 CHG=-1
M  V30 4 C 1.2404 -2.1855 0.0 0
M  V30 5 C 2.5281 -1.3586 0.0 0
M  V30 6 C 3.8159 -2.0556 0.0 0
M  V30 7 C 5.1036 -1.2286 0.0 0
M  V30 8 C 6.3913 -1.9256 0.0 0
M  V30 9 C 7.679 -1.0986 0.0 0
M  V30 10 C 8.9668 -1.7957 0.0 0
M  V30 11 C 10.2545 -0.9687 0.0 0
M  V30 12 C 11.5422 -1.6657 0.0 0
M  V30 13 C 12.8299 -0.8387 0.0 0
M  V30 14 C 14.1176 -1.5358 0.0 0
M  V30 15 C 15.4054 -0.7088 0.0 0
M  V30 16 C 16.6931 -1.4058 0.0 0
M  V30 17 C 17.9808 -0.5788 0.0 0
M  V30 END ATOM
M  V30 BEGIN BOND
M  V30 1 2 1 2
M  V30 2 1 2 3
M  V30 3 1 2 4
M  V30 4 1 4 5
M  V30 5 1 5 6
M  V30 6 1 6 7
M  V30 7 1 7 8
M  V30 8 1 8 9
M  V30 9 1 9 10
M  V30 10 1 10 11
M  V30 11 1 11 12
M  V30 12 1 12 13
M  V30 13 1 13 14
M  V30 14 1 14 15
M  V30 15 1 15 16
M  V30 16 1 16 17
M  V30 END BOND
M  V30 END CTAB
M  END
>  <Molecule Name>
tridecylacetate

>  <Molecule Name 2>
tridecylacetate

>  <Database>
Essential Oil Database

>  <InChI>
InChI=1S/C15H30O2/c1-2-3-4-5-6-7-8-9-10-11-12-13-14-15(16)17/h2-14H2,1H3,(H,16,17)/p-1

>  <InChI-Key>
WQEPLUUGTLDZJY-UHFFFAOYSA-M

>  <Smiles>
CCCCCCCCCCCCCCC([O-])=O

>  <Molecular Formula>
C15H29O2

$$$$
3-hexanol
Actelion Java MolfileCreator 2.0

  0  0  0  0  0  0              0 V3000
M  V30 BEGIN CTAB
M  V30 COUNTS 7 6 0 0 0
M  V30 BEGIN ATOM
M  V30 1 O 0.0 0.0 0.0 0
M  V30 2 C -0.0482 1.5447 0.0 0 CFG=2
M  V30 3 C 1.1947 2.3413 0.0 0
M  V30 4 C -1.3878 2.3413 0.0 0
M  V30 5 C 2.4378 1.6292 0.0 0
M  V30 6 C -2.7275 1.6292 0.0 0
M  V30 7 C 3.6809 2.4137 0.0 0
M  V30 END ATOM
M  V30 BEGIN BOND
M  V30 1 1 2 1 CFG=1
M  V30 2 1 2 3
M  V30 3 1 2 4
M  V30 4 1 3 5
M  V30 5 1 4 6
M  V30 6 1 5 7
M  V30 END BOND
M  V30 BEGIN COLLECTION
M  V30 MDLV30/STERAC1 ATOMS=(1 2)
M  V30 END COLLECTION
M  V30 END CTAB
M  END
>  <Molecule Name>
3-hexanol

>  <Molecule Name 2>
3-hexanol

>  <Database>
Essential Oil Database

>  <InChI>
InChI=1S/C6H14O/c1-3-5-6(7)4-2/h6-7H,3-5H2,1-2H3/t6-/m0/s1

>  <InChI-Key>
ZOCHHNOQQHDWHG-LURJTMIESA-N

>  <Smiles>
CCCC(CC)O

>  <Molecular Formula>
C6H14O

$$$$
dodecane
Actelion Java MolfileCreator 2.0

  0  0  0  0  0  0              0 V3000
M  V30 BEGIN CTAB
M  V30 COUNTS 12 11 0 0 0
M  V30 BEGIN ATOM
M  V30 1 C 0.0 0.0 0.0 0
M  V30 2 C 1.2679 -0.6973 0.0 0
M  V30 3 C -1.3525 -0.6973 0.0 0
M  V30 4 C 2.5359 0.0845 0.0 0
M  V30 5 C -2.705 0.0845 0.0 0
M  V30 6 C 3.8039 -0.6128 0.0 0
M  V30 7 C -4.0575 -0.6128 0.0 0
M  V30 8 C 5.0718 0.169 0.0 0
M  V30 9 C -5.41 0.169 0.0 0
M  V30 10 C 6.3398 -0.5283 0.0 0
M  V30 11 C -6.7625 -0.5283 0.0 0
M  V30 12 C 7.6078 0.2535 0.0 0
M  V30 END ATOM
M  V30 BEGIN BOND
M  V30 1 1 1 2
M  V30 2 1 1 3
M  V30 3 1 2 4
M  V30 4 1 3 5
M  V30 5 1 4 6
M  V30 6 1 5 7
M  V30 7 1 6 8
M  V30 8 1 7 9
M  V30 9 1 8 10
M  V30 10 1 9 11
M  V30 11 1 10 12
M  V30 END BOND
M  V30 END CTAB
M  END
>  <Molecule Name>
dodecane

>  <Molecule Name 2>
dodecane

>  <Database>
Essential Oil Database

>  <InChI>
InChI=1S/C12H26/c1-3-5-7-9-11-12-10-8-6-4-2/h3-12H2,1-2H3

>  <InChI-Key>
SNRUBQQJIBEYMU-UHFFFAOYSA-N

>  <Smiles>
CCCCCCCCCCCC

>  <Molecular Formula>
C12H26

$$$$
isopropyl hexadecanoate
Actelion Java MolfileCreator 2.0

  0  0  0  0  0  0              0 V3000
M  V30 BEGIN CTAB
M  V30 COUNTS 21 20 0 0 0
M  V30 BEGIN ATOM
M  V30 1 O 0.0 0.0 0.0 0
M  V30 2 C -0.0475 1.5218 0.0 0
M  V30 3 O 1.177 2.2946 0.0 0
M  V30 4 C -1.3673 2.2946 0.0 0
M  V30 5 C 2.4016 1.5813 0.0 0
M  V30 6 C -2.687 1.5813 0.0 0
M  V30 7 C 3.6263 2.3541 0.0 0
M  V30 8 C 2.3541 0.1545 0.0 0
M  V30 9 C -4.0067 2.3541 0.0 0
M  V30 10 C -5.3265 1.6407 0.0 0
M  V30 11 C -6.6462 2.4135 0.0 0
M  V30 12 C -7.966 1.7002 0.0 0
M  V30 13 C -9.2857 2.473 0.0 0
M  V30 14 C -10.6054 1.7596 0.0 0
M  V30 15 C -11.9252 2.5324 0.0 0
M  V30 16 C -13.2449 1.8191 0.0 0
M  V30 17 C -14.5647 2.5919 0.0 0
M  V30 18 C -15.8844 1.8785 0.0 0
M  V30 19 C -17.2042 2.6513 0.0 0
M  V30 20 C -18.5239 1.938 0.0 0
M  V30 21 C -19.8436 2.7108 0.0 0
M  V30 END ATOM
M  V30 BEGIN BOND
M  V30 1 2 1 2
M  V30 2 1 2 3
M  V30 3 1 2 4
M  V30 4 1 3 5
M  V30 5 1 4 6
M  V30 6 1 5 7
M  V30 7 1 5 8
M  V30 8 1 6 9
M  V30 9 1 9 10
M  V30 10 1 10 11
M  V30 11 1 11 12
M  V30 12 1 12 13
M  V30 13 1 13 14
M  V30 14 1 14 15
M  V30 15 1 15 16
M  V30 16 1 16 17
M  V30 17 1 17 18
M  V30 18 1 18 19
M  V30 19 1 19 20
M  V30 20 1 20 21
M  V30 END BOND
M  V30 END CTAB
M  END
>  <Molecule Name>
isopropyl hexadecanoate

>  <Molecule Name 2>
isopropyl hexadecanoate

>  <Database>
Essential Oil Database

>  <InChI>
InChI=1S/C19H38O2/c1-4-5-6-7-8-9-10-11-12-13-14-15-16-17-19(20)21-18(2)3/h18H,4-17H2,1-3H3

>  <InChI-Key>
XUGNVMKQXJXZCD-UHFFFAOYSA-N

>  <Smiles>
CCCCCCCCCCCCCCCC(OC(C)C)=O

>  <Molecular Formula>
C19H38O2

$$$$
isopropyl tetradecanoate
Actelion Java MolfileCreator 2.0

  0  0  0  0  0  0              0 V3000
M  V30 BEGIN CTAB
M  V30 COUNTS 19 18 0 0 0
M  V30 BEGIN ATOM
M  V30 1 O 0.0 0.0 0.0 0
M  V30 2 C -0.0476 1.5235 0.0 0
M  V30 3 O 1.1783 2.2972 0.0 0
M  V30 4 C -1.3688 2.2972 0.0 0
M  V30 5 C 2.4043 1.583 0.0 0
M  V30 6 C -2.6899 1.583 0.0 0
M  V30 7 C 3.6302 2.3567 0.0 0
M  V30 8 C 2.3567 0.1547 0.0 0
M  V30 9 C -4.0111 2.3567 0.0 0
M  V30 10 C -5.3323 1.6425 0.0 0
M  V30 11 C -6.6535 2.4162 0.0 0
M  V30 12 C -7.9747 1.702 0.0 0
M  V30 13 C -9.2959 2.4757 0.0 0
M  V30 14 C -10.6171 1.7615 0.0 0
M  V30 15 C -11.9383 2.5352 0.0 0
M  V30 16 C -13.2595 1.821 0.0 0
M  V30 17 C -14.5806 2.5947 0.0 0
M  V30 18 C -15.9018 1.8806 0.0 0
M  V30 19 C -17.223 2.6542 0.0 0
M  V30 END ATOM
M  V30 BEGIN BOND
M  V30 1 2 1 2
M  V30 2 1 2 3
M  V30 3 1 2 4
M  V30 4 1 3 5
M  V30 5 1 4 6
M  V30 6 1 5 7
M  V30 7 1 5 8
M  V30 8 1 6 9
M  V30 9 1 9 10
M  V30 10 1 10 11
M  V30 11 1 11 12
M  V30 12 1 12 13
M  V30 13 1 13 14
M  V30 14 1 14 15
M  V30 15 1 15 16
M  V30 16 1 16 17
M  V30 17 1 17 18
M  V30 18 1 18 19
M  V30 END BOND
M  V30 END CTAB
M  END
>  <Molecule Name>
isopropyl tetradecanoate

>  <Molecule Name 2>
isopropyl tetradecanoate

>  <Database>
Essential Oil Database

>  <InChI>
InChI=1S/C17H34O2/c1-4-5-6-7-8-9-10-11-12-13-14-15-17(18)19-16(2)3/h16H,4-15H2,1-3H3

>  <InChI-Key>
AXISYYRBXTVTFY-UHFFFAOYSA-N

>  <Smiles>
CCCCCCCCCCCCCC(OC(C)C)=O

>  <Molecular Formula>
C17H34O2

$$$$
6-methyl-2-heptanone
Actelion Java MolfileCreator 2.0

  0  0  0  0  0  0              0 V3000
M  V30 BEGIN CTAB
M  V30 COUNTS 9 8 0 0 0
M  V30 BEGIN ATOM
M  V30 1 O 0.0 0.0 0.0 0
M  V30 2 C -0.0489 1.5664 0.0 0
M  V30 3 C 1.2115 2.3619 0.0 0
M  V30 4 C -1.4073 2.3619 0.0 0
M  V30 5 C 2.472 1.6276 0.0 0
M  V30 6 C 3.7326 2.4231 0.0 0
M  V30 7 C 4.9931 1.6888 0.0 0
M  V30 8 C 6.2536 2.4843 0.0 0
M  V30 9 C 4.9441 0.2202 0.0 0
M  V30 END ATOM
M  V30 BEGIN BOND
M  V30 1 2 1 2
M  V30 2 1 2 3
M  V30 3 1 2 4
M  V30 4 1 3 5
M  V30 5 1 5 6
M  V30 6 1 6 7
M  V30 7 1 7 8
M  V30 8 1 7 9
M  V30 END BOND
M  V30 END CTAB
M  END
>  <Molecule Name>
6-methyl-2-heptanone

>  <Molecule Name 2>
6-methyl-2-heptanone

>  <Database>
Essential Oil Database

>  <InChI>
InChI=1S/C8H16O/c1-7(2)5-4-6-8(3)9/h7H,4-6H2,1-3H3

>  <InChI-Key>
DPLGXGDPPMLJHN-UHFFFAOYSA-N

>  <Smiles>
CC(C)CCCC(C)=O

>  <Molecular Formula>
C8H16O

$$$$
2-dodecenol
Actelion Java MolfileCreator 2.0

  0  0  0  0  0  0              0 V3000
M  V30 BEGIN CTAB
M  V30 COUNTS 13 12 0 0 0
M  V30 BEGIN ATOM
M  V30 1 O 0.0 0.0 0.0 0
M  V30 2 C -0.0494 1.5825 0.0 0
M  V30 3 C 1.2239 2.3861 0.0 0
M  V30 4 C 2.4974 1.6443 0.0 0
M  V30 5 C 3.7708 2.4603 0.0 0
M  V30 6 C 5.0442 1.7185 0.0 0
M  V30 7 C 6.3176 2.5221 0.0 0
M  V30 8 C 7.5911 1.7803 0.0 0
M  V30 9 C 8.8645 2.5839 0.0 0
M  V30 10 C 10.1379 1.8421 0.0 0
M  V30 11 C 11.4113 2.6457 0.0 0
M  V30 12 C 12.6848 1.9039 0.0 0
M  V30 13 C 13.9582 2.7199 0.0 0
M  V30 END ATOM
M  V30 BEGIN BOND
M  V30 1 1 1 2
M  V30 2 1 2 3
M  V30 3 2 3 4 CFG=2
M  V30 4 1 4 5
M  V30 5 1 5 6
M  V30 6 1 6 7
M  V30 7 1 7 8
M  V30 8 1 8 9
M  V30 9 1 9 10
M  V30 10 1 10 11
M  V30 11 1 11 12
M  V30 12 1 12 13
M  V30 END BOND
M  V30 END CTAB
M  END
>  <Molecule Name>
2-dodecenol

>  <Molecule Name 2>
2-dodecenol

>  <Database>
Essential Oil Database

>  <InChI>
InChI=1S/C12H24O/c1-2-3-4-5-6-7-8-9-10-11-12-13/h10-11,13H,2-9,12H2,1H3

>  <InChI-Key>
MLRYPOCSLBIUHY-UHFFFAOYSA-N

>  <Smiles>
CCCCCCCCCC=CCO

>  <Molecular Formula>
C12H24O

$$$$
5-eicosene
Actelion Java MolfileCreator 2.0

  0  0  0  0  0  0              0 V3000
M  V30 BEGIN CTAB
M  V30 COUNTS 20 19 0 0 0
M  V30 BEGIN ATOM
M  V30 1 C 0.0 0.0 0.0 0
M  V30 2 C -0.0491 1.5715 0.0 0
M  V30 3 C 1.2646 -0.7244 0.0 0
M  V30 4 C -1.4119 2.3696 0.0 0
M  V30 5 C 2.5292 0.0613 0.0 0
M  V30 6 C -1.461 3.9412 0.0 0
M  V30 7 C 3.7939 -0.663 0.0 0
M  V30 8 C -2.8239 4.7393 0.0 0
M  V30 9 C 5.0585 0.1227 0.0 0
M  V30 10 C -2.873 6.3109 0.0 0
M  V30 11 C 6.3232 -0.6016 0.0 0
M  V30 12 C 7.5878 0.1841 0.0 0
M  V30 13 C 8.8525 -0.5402 0.0 0
M  V30 14 C 10.1171 0.2455 0.0 0
M  V30 15 C 11.3817 -0.4788 0.0 0
M  V30 16 C 12.6464 0.3069 0.0 0
M  V30 17 C 13.911 -0.4174 0.0 0
M  V30 18 C 15.1757 0.3683 0.0 0
M  V30 19 C 16.4403 -0.356 0.0 0
M  V30 20 C 17.705 0.4297 0.0 0
M  V30 END ATOM
M  V30 BEGIN BOND
M  V30 1 2 1 2 CFG=2
M  V30 2 1 1 3
M  V30 3 1 2 4
M  V30 4 1 3 5
M  V30 5 1 4 6
M  V30 6 1 5 7
M  V30 7 1 6 8
M  V30 8 1 7 9
M  V30 9 1 8 10
M  V30 10 1 9 11
M  V30 11 1 11 12
M  V30 12 1 12 13
M  V30 13 1 13 14
M  V30 14 1 14 15
M  V30 15 1 15 16
M  V30 16 1 16 17
M  V30 17 1 17 18
M  V30 18 1 18 19
M  V30 19 1 19 20
M  V30 END BOND
M  V30 END CTAB
M  END
>  <Molecule Name>
5-eicosene

>  <Molecule Name 2>
5-eicosene

>  <Database>
Essential Oil Database

>  <InChI>
InChI=1S/C20H40/c1-3-5-7-9-11-13-15-17-19-20-18-16-14-12-10-8-6-4-2/h9,11H,3-8,10,12-20H2,1-2H3

>  <InChI-Key>
QRJSGJWTKHSNMK-UHFFFAOYSA-N

>  <Smiles>
CCCCCCCCCCCCCCC=CCCCC

>  <Molecular Formula>
C20H40

$$$$
dodecenol
Actelion Java MolfileCreator 2.0

  0  0  0  0  0  0              0 V3000
M  V30 BEGIN CTAB
M  V30 COUNTS 13 12 0 0 0
M  V30 BEGIN ATOM
M  V30 1 O 0.0 0.0 0.0 0
M  V30 2 C 1.284 0.8152 0.0 0
M  V30 3 C 2.5681 0.0815 0.0 0
M  V30 4 C 3.8522 0.8968 0.0 0
M  V30 5 C 5.1363 0.163 0.0 0
M  V30 6 C 6.4204 0.9783 0.0 0
M  V30 7 C 7.7045 0.2445 0.0 0
M  V30 8 C 8.9886 1.0598 0.0 0
M  V30 9 C 10.2727 0.3261 0.0 0
M  V30 10 C 11.5568 1.1414 0.0 0
M  V30 11 C 12.8408 0.4076 0.0 0
M  V30 12 C 14.1249 1.2229 0.0 0
M  V30 13 C 15.409 0.4891 0.0 0
M  V30 END ATOM
M  V30 BEGIN BOND
M  V30 1 1 1 2
M  V30 2 2 2 3 CFG=2
M  V30 3 1 3 4
M  V30 4 1 4 5
M  V30 5 1 5 6
M  V30 6 1 6 7
M  V30 7 1 7 8
M  V30 8 1 8 9
M  V30 9 1 9 10
M  V30 10 1 10 11
M  V30 11 1 11 12
M  V30 12 1 12 13
M  V30 END BOND
M  V30 END CTAB
M  END
>  <Molecule Name>
dodecenol

>  <Molecule Name 2>
dodecenol

>  <Database>
Essential Oil Database

>  <InChI>
InChI=1S/C12H24O/c1-2-3-4-5-6-7-8-9-10-11-12-13/h11-13H,2-10H2,1H3

>  <InChI-Key>
CQKHFONAFZDDKV-UHFFFAOYSA-N

>  <Smiles>
CCCCCCCCCCC=CO

>  <Molecular Formula>
C12H24O

$$$$
(z)-5-nonadecene
Actelion Java MolfileCreator 2.0

  0  0  0  0  0  0              0 V3000
M  V30 BEGIN CTAB
M  V30 COUNTS 19 18 0 0 0
M  V30 BEGIN ATOM
M  V30 1 C 0.0 0.0 0.0 0
M  V30 2 C -1.3571 0.7825 0.0 0
M  V30 3 C 1.2593 0.7825 0.0 0
M  V30 4 C -1.4061 2.3475 0.0 0
M  V30 5 C 2.5187 0.0489 0.0 0
M  V30 6 C -2.7633 3.1423 0.0 0
M  V30 7 C 3.7781 0.8436 0.0 0
M  V30 8 C -2.8122 4.7073 0.0 0
M  V30 9 C 5.0375 0.11 0.0 0
M  V30 10 C -4.1694 5.5021 0.0 0
M  V30 11 C 6.2969 0.9047 0.0 0
M  V30 12 C 7.5562 0.1711 0.0 0
M  V30 13 C 8.8156 0.9659 0.0 0
M  V30 14 C 10.075 0.2323 0.0 0
M  V30 15 C 11.3344 1.027 0.0 0
M  V30 16 C 12.5938 0.2934 0.0 0
M  V30 17 C 13.8531 1.0882 0.0 0
M  V30 18 C 15.1125 0.3545 0.0 0
M  V30 19 C 16.3719 1.1371 0.0 0
M  V30 END ATOM
M  V30 BEGIN BOND
M  V30 1 2 1 2
M  V30 2 1 1 3
M  V30 3 1 2 4
M  V30 4 1 3 5
M  V30 5 1 4 6
M  V30 6 1 5 7
M  V30 7 1 6 8
M  V30 8 1 7 9
M  V30 9 1 8 10
M  V30 10 1 9 11
M  V30 11 1 11 12
M  V30 12 1 12 13
M  V30 13 1 13 14
M  V30 14 1 14 15
M  V30 15 1 15 16
M  V30 16 1 16 17
M  V30 17 1 17 18
M  V30 18 1 18 19
M  V30 END BOND
M  V30 END CTAB
M  END
>  <Molecule Name>
(z)-5-nonadecene

>  <Molecule Name 2>
(z)-5-nonadecene

>  <Database>
Essential Oil Database

>  <InChI>
InChI=1S/C19H38/c1-3-5-7-9-11-13-15-17-19-18-16-14-12-10-8-6-4-2/h9,11H,3-8,10,12-19H2,1-2H3/b11-9-

>  <InChI-Key>
LHPVEDYVSCTZAY-LUAWRHEFSA-N

>  <Smiles>
CCCCCCCCCCCCC/C=C\CCCC

>  <Molecular Formula>
C19H38

$$$$
(z,e)-2,4-undecadiene
Actelion Java MolfileCreator 2.0

  0  0  0  0  0  0              0 V3000
M  V30 BEGIN CTAB
M  V30 COUNTS 11 10 0 0 0
M  V30 BEGIN ATOM
M  V30 1 C 0.0 0.0 0.0 0
M  V30 2 C -1.3548 0.7933 0.0 0
M  V30 3 C -0.0488 -1.4647 0.0 0
M  V30 4 C -1.4036 2.3557 0.0 0
M  V30 5 C 1.2083 -2.197 0.0 0
M  V30 6 C -2.7585 3.1491 0.0 0
M  V30 7 C 2.4655 -1.4036 0.0 0
M  V30 8 C 3.7227 -2.136 0.0 0
M  V30 9 C 4.9799 -1.3304 0.0 0
M  V30 10 C 6.2371 -2.0627 0.0 0
M  V30 11 C 7.4944 -1.2694 0.0 0
M  V30 END ATOM
M  V30 BEGIN BOND
M  V30 1 1 1 2
M  V30 2 2 1 3
M  V30 3 2 2 4
M  V30 4 1 3 5
M  V30 5 1 4 6
M  V30 6 1 5 7
M  V30 7 1 7 8
M  V30 8 1 8 9
M  V30 9 1 9 10
M  V30 10 1 10 11
M  V30 END BOND
M  V30 END CTAB
M  END
>  <Molecule Name>
(z,e)-2,4-undecadiene

>  <Molecule Name 2>
(z,e)-2,4-undecadiene

>  <Database>
Essential Oil Database

>  <InChI>
InChI=1S/C11H20/c1-3-5-7-9-11-10-8-6-4-2/h3,5,7,9H,4,6,8,10-11H2,1-2H3/b5-3+,9-7+

>  <InChI-Key>
GCDFTRNGRHQAJO-WJDMQLPWSA-N

>  <Smiles>
CCCCCC/C=C/C=C/C

>  <Molecular Formula>
C11H20

$$$$
5-methyldecane
Actelion Java MolfileCreator 2.0

  0  0  0  0  0  0              0 V3000
M  V30 BEGIN CTAB
M  V30 COUNTS 11 10 0 0 0
M  V30 BEGIN ATOM
M  V30 1 C 0.0 0.0 0.0 0 CFG=2
M  V30 2 C 1.2559 0.818 0.0 0
M  V30 3 C -1.348 0.818 0.0 0
M  V30 4 C -0.046 -1.4517 0.0 0
M  V30 5 C 2.5118 0.1267 0.0 0
M  V30 6 C -2.6961 0.1267 0.0 0
M  V30 7 C 3.7677 0.9448 0.0 0
M  V30 8 C -4.0442 0.9448 0.0 0
M  V30 9 C 5.0236 0.2534 0.0 0
M  V30 10 C -5.3923 0.2534 0.0 0
M  V30 11 C 6.2795 1.0715 0.0 0
M  V30 END ATOM
M  V30 BEGIN BOND
M  V30 1 1 1 2
M  V30 2 1 1 3
M  V30 3 1 1 4 CFG=1
M  V30 4 1 2 5
M  V30 5 1 3 6
M  V30 6 1 5 7
M  V30 7 1 6 8
M  V30 8 1 7 9
M  V30 9 1 8 10
M  V30 10 1 9 11
M  V30 END BOND
M  V30 BEGIN COLLECTION
M  V30 MDLV30/STERAC1 ATOMS=(1 1)
M  V30 END COLLECTION
M  V30 END CTAB
M  END
>  <Molecule Name>
5-methyldecane

>  <Molecule Name 2>
5-methyldecane

>  <Database>
Essential Oil Database

>  <InChI>
InChI=1S/C11H24/c1-4-6-8-10-11(3)9-7-5-2/h11H,4-10H2,1-3H3/t11-/m0/s1

>  <InChI-Key>
QUYFPNWYGLFQQU-NSHDSACASA-N

>  <Smiles>
CCCCCC(C)CCCC

>  <Molecular Formula>
C11H24

$$$$
6-methoxyelemicin
Actelion Java MolfileCreator 2.0

  0  0  0  0  0  0              0 V3000
M  V30 BEGIN CTAB
M  V30 COUNTS 17 17 0 0 0
M  V30 BEGIN ATOM
M  V30 1 O 0.0 0.0 0.0 0
M  V30 2 C 1.2496 0.7764 0.0 0
M  V30 3 C -1.3467 0.7764 0.0 0
M  V30 4 C 1.2011 2.3294 0.0 0
M  V30 5 C 2.4993 0.0606 0.0 0
M  V30 6 O -0.1455 3.1181 0.0 0
M  V30 7 C 2.4508 3.1181 0.0 0
M  V30 8 O 2.4508 -1.3952 0.0 0
M  V30 9 C 3.749 0.8492 0.0 0
M  V30 10 C -1.4923 2.4022 0.0 0
M  V30 11 O 2.4022 4.671 0.0 0
M  V30 12 C 3.7004 2.4022 0.0 0
M  V30 13 C 1.104 -2.1232 0.0 0
M  V30 14 C 4.9986 0.1334 0.0 0
M  V30 15 C 1.0555 5.4597 0.0 0
M  V30 16 C 4.9501 -1.3224 0.0 0
M  V30 17 C 6.1998 -2.0504 0.0 0
M  V30 END ATOM
M  V30 BEGIN BOND
M  V30 1 1 1 2
M  V30 2 1 1 3
M  V30 3 2 2 4
M  V30 4 1 2 5
M  V30 5 1 4 6
M  V30 6 1 4 7
M  V30 7 1 5 8
M  V30 8 2 5 9
M  V30 9 1 6 10
M  V30 10 1 7 11
M  V30 11 2 7 12
M  V30 12 1 8 13
M  V30 13 1 9 14
M  V30 14 1 11 15
M  V30 15 1 14 16
M  V30 16 2 16 17
M  V30 17 1 9 12
M  V30 END BOND
M  V30 END CTAB
M  END
>  <Molecule Name>
6-methoxyelemicin

>  <Molecule Name 2>
6-methoxyelemicin

>  <Database>
Essential Oil Database

>  <InChI>
InChI=1S/C13H18O4/c1-6-7-9-8-10(14-2)12(16-4)13(17-5)11(9)15-3/h6,8H,1,7H2,2-5H3

>  <InChI-Key>
HRAXJWRHSUTMCS-UHFFFAOYSA-N

>  <Smiles>
COc(c(OC)c1OC)cc(CC=C)c1OC

>  <Molecular Formula>
C13H18O4

$$$$
methyl benzoate
Actelion Java MolfileCreator 2.0

  0  0  0  0  0  0              0 V3000
M  V30 BEGIN CTAB
M  V30 COUNTS 10 10 0 0 0
M  V30 BEGIN ATOM
M  V30 1 O 0.0 0.0 0.0 0
M  V30 2 C 1.2694 -0.7271 0.0 0
M  V30 3 O 2.5389 0.0616 0.0 0
M  V30 4 C 1.2201 -2.2061 0.0 0
M  V30 5 C 2.4896 1.6392 0.0 0
M  V30 6 C 2.4896 -2.9333 0.0 0
M  V30 7 C -0.1478 -2.9333 0.0 0
M  V30 8 C 2.4403 -4.4123 0.0 0
M  V30 9 C -0.1971 -4.4123 0.0 0
M  V30 10 C 1.0722 -5.1395 0.0 0
M  V30 END ATOM
M  V30 BEGIN BOND
M  V30 1 2 1 2
M  V30 2 1 2 3
M  V30 3 1 2 4
M  V30 4 1 3 5
M  V30 5 2 4 6
M  V30 6 1 4 7
M  V30 7 1 6 8
M  V30 8 2 7 9
M  V30 9 2 8 10
M  V30 10 1 9 10
M  V30 END BOND
M  V30 END CTAB
M  END
>  <Molecule Name>
methyl benzoate

>  <Molecule Name 2>
methyl benzoate

>  <Database>
Essential Oil Database

>  <InChI>
InChI=1S/C8H8O2/c1-10-8(9)7-5-3-2-4-6-7/h2-6H,1H3

>  <InChI-Key>
QPJVMBTYPHYUOC-UHFFFAOYSA-N

>  <Smiles>
COC(c1ccccc1)=O

>  <Molecular Formula>
C8H8O2

$$$$
cadinene
Actelion Java MolfileCreator 2.0

  0  0  0  0  0  0              0 V3000
M  V30 BEGIN CTAB
M  V30 COUNTS 15 16 0 0 0
M  V30 BEGIN ATOM
M  V30 1 C 0.0 0.0 0.0 0
M  V30 2 C -1.3709 -0.7286 0.0 0
M  V30 3 C 1.2721 -0.7286 0.0 0 CFG=1
M  V30 4 C -0.0494 1.5809 0.0 0
M  V30 5 C -1.4203 -2.2107 0.0 0
M  V30 6 C 1.2227 -2.2107 0.0 0 CFG=2
M  V30 7 C 2.5442 0.0617 0.0 0
M  V30 8 C -0.1482 -2.9518 0.0 0 CFG=2
M  V30 9 C 2.4948 -2.9518 0.0 0
M  V30 10 C 3.8163 -0.6669 0.0 0
M  V30 11 C -0.1976 -4.4339 0.0 0
M  V30 12 C 3.7669 -2.1366 0.0 0
M  V30 13 C 1.0745 -5.1749 0.0 0
M  V30 14 C -1.5685 -5.1749 0.0 0
M  V30 15 C 5.0391 -2.8777 0.0 0
M  V30 END ATOM
M  V30 BEGIN BOND
M  V30 1 2 1 2
M  V30 2 1 1 3
M  V30 3 1 1 4
M  V30 4 1 2 5
M  V30 5 1 3 6
M  V30 6 1 3 7 CFG=3
M  V30 7 1 5 8
M  V30 8 1 6 9 CFG=1
M  V30 9 1 7 10
M  V30 10 1 8 11 CFG=3
M  V30 11 2 9 12
M  V30 12 1 11 13
M  V30 13 1 11 14
M  V30 14 1 12 15
M  V30 15 1 6 8
M  V30 16 1 10 12
M  V30 END BOND
M  V30 BEGIN COLLECTION
M  V30 MDLV30/STEABS ATOMS=(3 3 6 8)
M  V30 END COLLECTION
M  V30 END CTAB
M  END
>  <Molecule Name>
cadinene

>  <Molecule Name 2>
cadinene

>  <Database>
Essential Oil Database

>  <InChI>
InChI=1S/C15H24/c1-10(2)13-8-6-12(4)14-7-5-11(3)9-15(13)14/h6,9-10,13-15H,5,7-8H2,1-4H3/t13-,14-,15-/m0/s1

>  <InChI-Key>
QMAYBMKBYCGXDH-KKUMJFAQSA-N

>  <Smiles>
CC(C)[C@H]1[C@@H]2C=C(C)CC[C@H]2C(C)=CC1

>  <Molecular Formula>
C15H24

$$$$
(-)-bornyl acetate
Actelion Java MolfileCreator 2.0

  0  0  0  0  0  0              0 V3000
M  V30 BEGIN CTAB
M  V30 COUNTS 14 15 0 0 0
M  V30 BEGIN ATOM
M  V30 1 O 0.0 0.0 0.0 0
M  V30 2 C -1.1271 -0.9183 0.0 0
M  V30 3 O -0.8348 -2.3516 0.0 0
M  V30 4 C -2.5881 -0.4174 0.0 0
M  V30 5 C 0.2643 -3.3535 0.0 0 CFG=1
M  V30 6 C 1.2801 -2.5186 0.0 0
M  V30 7 C 0.1808 -4.7589 0.0 0
M  V30 8 C 0.807 -3.924 0.0 0
M  V30 9 C 2.4768 -3.2421 0.0 0
M  V30 10 C 1.4193 -0.9462 0.0 0
M  V30 11 C 1.1688 -5.4268 0.0 0
M  V30 12 C -0.974 -3.27 0.0 0
M  V30 13 C -0.8905 -4.7171 0.0 0
M  V30 14 C 2.3933 -4.6476 0.0 0
M  V30 END ATOM
M  V30 BEGIN BOND
M  V30 1 2 1 2
M  V30 2 1 2 3
M  V30 3 1 2 4
M  V30 4 1 5 3 CFG=1
M  V30 5 1 5 6
M  V30 6 1 5 7
M  V30 7 1 6 8
M  V30 8 1 6 9
M  V30 9 1 6 10
M  V30 10 1 7 11
M  V30 11 1 8 12
M  V30 12 1 8 13
M  V30 13 1 9 14
M  V30 14 1 8 11
M  V30 15 1 11 14
M  V30 END BOND
M  V30 BEGIN COLLECTION
M  V30 MDLV30/STEABS ATOMS=(1 5)
M  V30 END COLLECTION
M  V30 END CTAB
M  END
>  <Molecule Name>
(-)-bornyl acetate

>  <Molecule Name 2>
(-)-bornyl acetate

>  <Database>
Essential Oil Database

>  <InChI>
InChI=1S/C12H20O2/c1-8(13)14-10-7-9-5-6-12(10,4)11(9,2)3/h9-10H,5-7H2,1-4H3/t9?,10-,12?/m1/s1

>  <InChI-Key>
KGEKLUUHTZCSIP-SQLBVSGCSA-N

>  <Smiles>
CC(C)(C(CC1)C2)C1(C)[C@@H]2OC(C)=O

>  <Molecular Formula>
C12H20O2

$$$$
ageratochromene
Actelion Java MolfileCreator 2.0

  0  0  0  0  0  0              0 V3000
M  V30 BEGIN CTAB
M  V30 COUNTS 16 17 0 0 0
M  V30 BEGIN ATOM
M  V30 1 O 0.0 0.0 0.0 0
M  V30 2 C -1.3203 0.7731 0.0 0
M  V30 3 C 1.2252 0.7731 0.0 0
M  V30 4 C -1.3679 2.2957 0.0 0
M  V30 5 C -2.6407 0.0594 0.0 0
M  V30 6 C 1.1776 2.2957 0.0 0
M  V30 7 C 2.6288 1.0824 0.0 0
M  V30 8 C 1.6891 -0.559 0.0 0
M  V30 9 C -2.6883 3.0689 0.0 0
M  V30 10 C -0.1427 3.0689 0.0 0
M  V30 11 C -3.9611 0.8326 0.0 0
M  V30 12 C -4.0087 2.3552 0.0 0
M  V30 13 O -5.2815 0.1189 0.0 0
M  V30 14 O -5.329 3.1284 0.0 0
M  V30 15 C -6.6018 0.8921 0.0 0
M  V30 16 C -6.6494 2.4147 0.0 0
M  V30 END ATOM
M  V30 BEGIN BOND
M  V30 1 1 1 2
M  V30 2 1 1 3
M  V30 3 2 2 4
M  V30 4 1 2 5
M  V30 5 1 3 6
M  V30 6 1 3 7
M  V30 7 1 3 8
M  V30 8 1 4 9
M  V30 9 1 4 10
M  V30 10 2 5 11
M  V30 11 2 9 12
M  V30 12 1 11 13
M  V30 13 1 12 14
M  V30 14 1 13 15
M  V30 15 1 14 16
M  V30 16 2 6 10
M  V30 17 1 11 12
M  V30 END BOND
M  V30 END CTAB
M  END
>  <Molecule Name>
ageratochromene

>  <Molecule Name 2>
ageratochromene

>  <Database>
Essential Oil Database

>  <InChI>
InChI=1S/C13H16O3/c1-13(2)6-5-9-7-11(14-3)12(15-4)8-10(9)16-13/h5-8H,1-4H3

>  <InChI-Key>
PTIDGSWTMLSGAH-UHFFFAOYSA-N

>  <Smiles>
CC(C)(C=C1)Oc(cc2OC)c1cc2OC

>  <Molecular Formula>
C13H16O3

$$$$
alpha-asarone
Actelion Java MolfileCreator 2.0

  0  0  0  0  0  0              0 V3000
M  V30 BEGIN CTAB
M  V30 COUNTS 15 15 0 0 0
M  V30 BEGIN ATOM
M  V30 1 O 0.0 0.0 0.0 0
M  V30 2 C -0.0489 -1.4682 0.0 0
M  V30 3 C -1.3581 0.783 0.0 0
M  V30 4 C -1.407 -2.1901 0.0 0
M  V30 5 C 1.2113 -2.1901 0.0 0
M  V30 6 O -2.7652 -1.3948 0.0 0
M  V30 7 C -1.456 -3.6584 0.0 0
M  V30 8 C 1.1623 -3.6584 0.0 0
M  V30 9 C -2.8141 0.1712 0.0 0
M  V30 10 C -0.1957 -4.3802 0.0 0
M  V30 11 O 2.4226 -4.3802 0.0 0
M  V30 12 C -0.2447 -5.8485 0.0 0
M  V30 13 C 2.3736 -5.8485 0.0 0
M  V30 14 C -1.6028 -6.5826 0.0 0
M  V30 15 C -1.6517 -8.0509 0.0 0
M  V30 END ATOM
M  V30 BEGIN BOND
M  V30 1 1 1 2
M  V30 2 1 1 3
M  V30 3 2 2 4
M  V30 4 1 2 5
M  V30 5 1 4 6
M  V30 6 1 4 7
M  V30 7 2 5 8
M  V30 8 1 6 9
M  V30 9 2 7 10
M  V30 10 1 8 11
M  V30 11 1 10 12
M  V30 12 1 11 13
M  V30 13 2 12 14
M  V30 14 1 14 15
M  V30 15 1 8 10
M  V30 END BOND
M  V30 END CTAB
M  END
>  <Molecule Name>
alpha-asarone

>  <Molecule Name 2>
alpha-asarone

>  <Database>
Essential Oil Database

>  <InChI>
InChI=1S/C12H16O3/c1-5-6-9-7-11(14-3)12(15-4)8-10(9)13-2/h5-8H,1-4H3/b6-5+

>  <InChI-Key>
RKFAZBXYICVSKP-AATRIKPKSA-N

>  <Smiles>
C/C=C/c(c(OC)c1)cc(OC)c1OC

>  <Molecular Formula>
C12H16O3

$$$$
alpha-irone
Actelion Java MolfileCreator 2.0

  0  0  0  0  0  0              0 V3000
M  V30 BEGIN CTAB
M  V30 COUNTS 15 15 0 0 0
M  V30 BEGIN ATOM
M  V30 1 O 0.0 0.0 0.0 0
M  V30 2 C -0.0469 -1.4785 0.0 0
M  V30 3 C 1.2321 -2.1709 0.0 0
M  V30 4 C -1.4199 -2.1709 0.0 0
M  V30 5 C 1.1852 -3.6495 0.0 0
M  V30 6 C 2.4643 -4.3419 0.0 0
M  V30 7 C 2.4173 -5.8205 0.0 0
M  V30 8 C 3.7434 -3.5204 0.0 0
M  V30 9 C 3.6964 -6.5128 0.0 0
M  V30 10 C 1.0444 -6.5128 0.0 0
M  V30 11 C 5.0225 -4.2128 0.0 0
M  V30 12 C 2.9923 -2.124 0.0 0
M  V30 13 C 4.4005 -2.124 0.0 0
M  V30 14 C 4.9755 -5.6914 0.0 0
M  V30 15 C 6.3016 -3.3913 0.0 0
M  V30 END ATOM
M  V30 BEGIN BOND
M  V30 1 2 1 2
M  V30 2 1 2 3
M  V30 3 1 2 4
M  V30 4 2 3 5
M  V30 5 1 5 6
M  V30 6 1 6 7
M  V30 7 1 6 8
M  V30 8 2 7 9
M  V30 9 1 7 10
M  V30 10 1 8 11
M  V30 11 1 8 12
M  V30 12 1 8 13
M  V30 13 1 9 14
M  V30 14 1 11 15
M  V30 15 1 11 14
M  V30 END BOND
M  V30 END CTAB
M  END
>  <Molecule Name>
alpha-irone

>  <Molecule Name 2>
alpha-irone

>  <Database>
Essential Oil Database

>  <InChI>
InChI=1S/C14H22O/c1-10-6-7-11(2)14(4,5)13(10)9-8-12(3)15/h6,8-9,11,13H,7H2,1-5H3/b9-8+

>  <InChI-Key>
JZQOJFLIJNRDHK-CMDGGOBGSA-N

>  <Smiles>
CC1C(C)(C)C(/C=C/C(C)=O)C(C)=CC1

>  <Molecular Formula>
C14H22O

$$$$
farnesyl acetate
Actelion Java MolfileCreator 2.0

  0  0  0  0  0  0              0 V3000
M  V30 BEGIN CTAB
M  V30 COUNTS 19 18 0 0 0
M  V30 BEGIN ATOM
M  V30 1 O 0.0 0.0 0.0 0
M  V30 2 C -1.5271 0.0477 0.0 0
M  V30 3 O -2.3026 -1.1811 0.0 0
M  V30 4 C -2.3026 1.372 0.0 0
M  V30 5 C -3.8298 -1.1334 0.0 0
M  V30 6 C -4.5934 -2.3623 0.0 0
M  V30 7 C -6.1206 -2.3146 0.0 0
M  V30 8 C -6.8961 -3.5435 0.0 0
M  V30 9 C -6.8961 -0.9902 0.0 0
M  V30 10 C -8.4233 -3.4958 0.0 0
M  V30 11 C -9.1988 -4.7247 0.0 0
M  V30 12 C -10.726 -4.6769 0.0 0
M  V30 13 C -11.5015 -5.9058 0.0 0
M  V30 14 C -11.5015 -3.3526 0.0 0
M  V30 15 C -13.0287 -5.8581 0.0 0
M  V30 16 C -13.8042 -7.087 0.0 0
M  V30 17 C -15.3314 -7.0393 0.0 0
M  V30 18 C -16.1069 -8.2682 0.0 0
M  V30 19 C -16.1069 -5.7149 0.0 0
M  V30 END ATOM
M  V30 BEGIN BOND
M  V30 1 2 1 2
M  V30 2 1 2 3
M  V30 3 1 2 4
M  V30 4 1 3 5
M  V30 5 1 5 6
M  V30 6 2 6 7 CFG=2
M  V30 7 1 7 8
M  V30 8 1 7 9
M  V30 9 1 8 10
M  V30 10 1 10 11
M  V30 11 2 11 12 CFG=2
M  V30 12 1 12 13
M  V30 13 1 12 14
M  V30 14 1 13 15
M  V30 15 1 15 16
M  V30 16 2 16 17
M  V30 17 1 17 18
M  V30 18 1 17 19
M  V30 END BOND
M  V30 END CTAB
M  END
>  <Molecule Name>
farnesyl acetate

>  <Molecule Name 2>
farnesyl acetate

>  <Database>
Essential Oil Database

>  <InChI>
InChI=1S/C17H28O2/c1-14(2)8-6-9-15(3)10-7-11-16(4)12-13-19-17(5)18/h8,10,12H,6-7,9,11,13H2,1-5H3

>  <InChI-Key>
ZGIGZINMAOQWLX-UHFFFAOYSA-N

>  <Smiles>
CC(C)=CCCC(C)=CCCC(C)=CCOC(C)=O

>  <Molecular Formula>
C17H28O2

$$$$
(e,z)-undeca-1,3,5-triene
Actelion Java MolfileCreator 2.0

  0  0  0  0  0  0              0 V3000
M  V30 BEGIN CTAB
M  V30 COUNTS 11 10 0 0 0
M  V30 BEGIN ATOM
M  V30 1 C 0.0 0.0 0.0 0
M  V30 2 C -1.3587 0.8129 0.0 0
M  V30 3 C -0.0464 -1.4632 0.0 0
M  V30 4 C -2.7175 0.0929 0.0 0
M  V30 5 C 1.2194 -2.1484 0.0 0
M  V30 6 C -4.0762 0.9058 0.0 0
M  V30 7 C 2.4852 -1.3355 0.0 0
M  V30 8 C 3.7511 -2.0207 0.0 0
M  V30 9 C 5.0169 -1.2077 0.0 0
M  V30 10 C 6.2828 -1.8929 0.0 0
M  V30 11 C 7.5486 -1.08 0.0 0
M  V30 END ATOM
M  V30 BEGIN BOND
M  V30 1 2 1 2
M  V30 2 1 1 3
M  V30 3 1 2 4
M  V30 4 2 3 5
M  V30 5 2 4 6
M  V30 6 1 5 7
M  V30 7 1 7 8
M  V30 8 1 8 9
M  V30 9 1 9 10
M  V30 10 1 10 11
M  V30 END BOND
M  V30 END CTAB
M  END
>  <Molecule Name>
(e,z)-undeca-1,3,5-triene

>  <Molecule Name 2>
(e,z)-undeca-1,3,5-triene

>  <Database>
Essential Oil Database

>  <InChI>
InChI=1S/C11H18/c1-3-5-7-9-11-10-8-6-4-2/h3,5,7,9,11H,1,4,6,8,10H2,2H3/b7-5-,11-9-

>  <InChI-Key>
JQQDKNVOSLONRS-CXHWBCNXSA-N

>  <Smiles>
CCCCC/C=C\C=C/C=C

>  <Molecular Formula>
C11H18

$$$$
2-heptyl acetate
Actelion Java MolfileCreator 2.0

  0  0  0  0  0  0              0 V3000
M  V30 BEGIN CTAB
M  V30 COUNTS 11 10 0 0 0
M  V30 BEGIN ATOM
M  V30 1 O 0.0 0.0 0.0 0
M  V30 2 C -0.0468 -1.4772 0.0 0
M  V30 3 O -1.4186 -2.2041 0.0 0 CHG=-1
M  V30 4 C 1.231 -2.2041 0.0 0
M  V30 5 C 2.5089 -1.3717 0.0 0
M  V30 6 C 3.7868 -2.0868 0.0 0
M  V30 7 C 5.0647 -1.2544 0.0 0
M  V30 8 C 6.3426 -1.9813 0.0 0
M  V30 9 C 7.6205 -1.1489 0.0 0
M  V30 10 C 8.8985 -1.8641 0.0 0
M  V30 11 C 10.1764 -1.0317 0.0 0
M  V30 END ATOM
M  V30 BEGIN BOND
M  V30 1 2 1 2
M  V30 2 1 2 3
M  V30 3 1 2 4
M  V30 4 1 4 5
M  V30 5 1 5 6
M  V30 6 1 6 7
M  V30 7 1 7 8
M  V30 8 1 8 9
M  V30 9 1 9 10
M  V30 10 1 10 11
M  V30 END BOND
M  V30 END CTAB
M  END
>  <Molecule Name>
2-heptyl acetate

>  <Molecule Name 2>
2-heptyl acetate

>  <Database>
Essential Oil Database

>  <InChI>
InChI=1S/C9H18O2/c1-2-3-4-5-6-7-8-9(10)11/h2-8H2,1H3,(H,10,11)/p-1

>  <InChI-Key>
FBUKVWPVBMHYJY-UHFFFAOYSA-M

>  <Smiles>
CCCCCCCCC([O-])=O

>  <Molecular Formula>
C9H17O2

$$$$
decylbutyrate
Actelion Java MolfileCreator 2.0

  0  0  0  0  0  0              0 V3000
M  V30 BEGIN CTAB
M  V30 COUNTS 16 15 0 0 0
M  V30 BEGIN ATOM
M  V30 1 O 0.0 0.0 0.0 0
M  V30 2 C 1.2896 -0.7099 0.0 0
M  V30 3 O 1.2423 -2.2007 0.0 0 CHG=-1
M  V30 4 C 2.5793 0.1064 0.0 0
M  V30 5 C 3.8689 -0.6034 0.0 0
M  V30 6 C 5.1586 0.2129 0.0 0
M  V30 7 C 6.4483 -0.4969 0.0 0
M  V30 8 C 7.7379 0.3194 0.0 0
M  V30 9 C 9.0276 -0.3904 0.0 0
M  V30 10 C 10.3172 0.4259 0.0 0
M  V30 11 C 11.6069 -0.2839 0.0 0
M  V30 12 C 12.8966 0.5442 0.0 0
M  V30 13 C 14.1862 -0.1656 0.0 0
M  V30 14 C 15.4759 0.6625 0.0 0
M  V30 15 C 16.7655 -0.0473 0.0 0
M  V30 16 C 18.0552 0.7808 0.0 0
M  V30 END ATOM
M  V30 BEGIN BOND
M  V30 1 2 1 2
M  V30 2 1 2 3
M  V30 3 1 2 4
M  V30 4 1 4 5
M  V30 5 1 5 6
M  V30 6 1 6 7
M  V30 7 1 7 8
M  V30 8 1 8 9
M  V30 9 1 9 10
M  V30 10 1 10 11
M  V30 11 1 11 12
M  V30 12 1 12 13
M  V30 13 1 13 14
M  V30 14 1 14 15
M  V30 15 1 15 16
M  V30 END BOND
M  V30 END CTAB
M  END
>  <Molecule Name>
decylbutyrate

>  <Molecule Name 2>
decylbutyrate

>  <Database>
Essential Oil Database

>  <InChI>
InChI=1S/C14H28O2/c1-2-3-4-5-6-7-8-9-10-11-12-13-14(15)16/h2-13H2,1H3,(H,15,16)/p-1

>  <InChI-Key>
TUNFSRHWOTWDNC-UHFFFAOYSA-M

>  <Smiles>
CCCCCCCCCCCCCC([O-])=O

>  <Molecular Formula>
C14H27O2

$$$$
dodecenyl acetate
Actelion Java MolfileCreator 2.0

  0  0  0  0  0  0              0 V3000
M  V30 BEGIN CTAB
M  V30 COUNTS 16 15 0 0 0
M  V30 BEGIN ATOM
M  V30 1 O 0.0 0.0 0.0 0
M  V30 2 C 1.2884 -0.7092 0.0 0
M  V30 3 O 1.2411 -2.1985 0.0 0
M  V30 4 C 2.5768 0.1063 0.0 0
M  V30 5 C 2.5295 -2.9078 0.0 0
M  V30 6 C 2.4822 -4.3971 0.0 0
M  V30 7 C 3.7707 -5.1064 0.0 0
M  V30 8 C 5.0591 -4.2671 0.0 0
M  V30 9 C 6.3475 -5.0 0.0 0
M  V30 10 C 7.6359 -4.1607 0.0 0
M  V30 11 C 8.9244 -4.87 0.0 0
M  V30 12 C 10.2128 -4.0307 0.0 0
M  V30 13 C 11.5012 -4.7399 0.0 0
M  V30 14 C 12.7896 -3.9007 0.0 0
M  V30 15 C 14.078 -4.6099 0.0 0
M  V30 16 C 15.3665 -3.7707 0.0 0
M  V30 END ATOM
M  V30 BEGIN BOND
M  V30 1 2 1 2
M  V30 2 1 2 3
M  V30 3 1 2 4
M  V30 4 1 3 5
M  V30 5 2 5 6 CFG=2
M  V30 6 1 6 7
M  V30 7 1 7 8
M  V30 8 1 8 9
M  V30 9 1 9 10
M  V30 10 1 10 11
M  V30 11 1 11 12
M  V30 12 1 12 13
M  V30 13 1 13 14
M  V30 14 1 14 15
M  V30 15 1 15 16
M  V30 END BOND
M  V30 END CTAB
M  END
>  <Molecule Name>
dodecenyl acetate

>  <Molecule Name 2>
dodecenyl acetate

>  <Database>
Essential Oil Database

>  <InChI>
InChI=1S/C14H26O2/c1-3-4-5-6-7-8-9-10-11-12-13-16-14(2)15/h12-13H,3-11H2,1-2H3

>  <InChI-Key>
MAAMIILYYYQTQW-UHFFFAOYSA-N

>  <Smiles>
CCCCCCCCCCC=COC(C)=O

>  <Molecular Formula>
C14H26O2

$$$$
(z)-5-decenyl acetate
Actelion Java MolfileCreator 2.0

  0  0  0  0  0  0              0 V3000
M  V30 BEGIN CTAB
M  V30 COUNTS 14 13 0 0 0
M  V30 BEGIN ATOM
M  V30 1 O 0.0 0.0 0.0 0
M  V30 2 C 1.2627 -0.7355 0.0 0
M  V30 3 O 2.5254 0.0612 0.0 0
M  V30 4 C 1.2136 -2.2067 0.0 0
M  V30 5 C 3.7881 -0.6742 0.0 0
M  V30 6 C 5.0509 0.1225 0.0 0
M  V30 7 C 6.3136 -0.6129 0.0 0
M  V30 8 C 7.5763 0.1838 0.0 0
M  V30 9 C 8.839 -0.5516 0.0 0
M  V30 10 C 10.1018 0.2451 0.0 0
M  V30 11 C 10.0527 1.8144 0.0 0
M  V30 12 C 8.6919 2.6112 0.0 0
M  V30 13 C 8.6429 4.1804 0.0 0
M  V30 14 C 9.9056 4.9773 0.0 0
M  V30 END ATOM
M  V30 BEGIN BOND
M  V30 1 2 1 2
M  V30 2 1 2 3
M  V30 3 1 2 4
M  V30 4 1 3 5
M  V30 5 1 5 6
M  V30 6 1 6 7
M  V30 7 1 7 8
M  V30 8 1 8 9
M  V30 9 2 9 10
M  V30 10 1 10 11
M  V30 11 1 11 12
M  V30 12 1 12 13
M  V30 13 1 13 14
M  V30 END BOND
M  V30 END CTAB
M  END
>  <Molecule Name>
(z)-5-decenyl acetate

>  <Molecule Name 2>
(z)-5-decenyl acetate

>  <Database>
Essential Oil Database

>  <InChI>
InChI=1S/C12H22O2/c1-3-4-5-6-7-8-9-10-11-14-12(2)13/h6-7H,3-5,8-11H2,1-2H3/b7-6-

>  <InChI-Key>
VTUFOIHYMMMNOM-SREVYHEPSA-N

>  <Smiles>
CCCC/C=C\CCCCOC(C)=O

>  <Molecular Formula>
C12H22O2

$$$$
(z)-6-decenylacetate
Actelion Java MolfileCreator 2.0

  0  0  0  0  0  0              0 V3000
M  V30 BEGIN CTAB
M  V30 COUNTS 14 13 0 0 0
M  V30 BEGIN ATOM
M  V30 1 O 0.0 0.0 0.0 0
M  V30 2 C -0.0491 -1.4734 0.0 0
M  V30 3 O -1.412 -2.2101 0.0 0 CHG=-1
M  V30 4 C 1.2155 -2.2101 0.0 0
M  V30 5 C 2.4802 -1.412 0.0 0
M  V30 6 C 3.7449 -2.1487 0.0 0
M  V30 7 C 5.0096 -1.3506 0.0 0
M  V30 8 C 6.2742 -2.0873 0.0 0
M  V30 9 C 7.5389 -1.2892 0.0 0
M  V30 10 C 8.8036 -2.0259 0.0 0
M  V30 11 C 10.0683 -1.2278 0.0 0
M  V30 12 C 10.0192 0.3437 0.0 0
M  V30 13 C 11.2838 1.1418 0.0 0
M  V30 14 C 11.2347 2.7135 0.0 0
M  V30 END ATOM
M  V30 BEGIN BOND
M  V30 1 2 1 2
M  V30 2 1 2 3
M  V30 3 1 2 4
M  V30 4 1 4 5
M  V30 5 1 5 6
M  V30 6 1 6 7
M  V30 7 1 7 8
M  V30 8 1 8 9
M  V30 9 1 9 10
M  V30 10 2 10 11
M  V30 11 1 11 12
M  V30 12 1 12 13
M  V30 13 1 13 14
M  V30 END BOND
M  V30 END CTAB
M  END
>  <Molecule Name>
(z)-6-decenylacetate

>  <Molecule Name 2>
(z)-6-decenylacetate

>  <Database>
Essential Oil Database

>  <InChI>
InChI=1S/C12H22O2/c1-2-3-4-5-6-7-8-9-10-11-12(13)14/h4-5H,2-3,6-11H2,1H3,(H,13,14)/p-1/b5-4-

>  <InChI-Key>
OZKLKDKGPNBGPK-PLNGDYQASA-M

>  <Smiles>
CCC/C=C\CCCCCCC([O-])=O

>  <Molecular Formula>
C12H21O2

$$$$
2,3,6-trimethylbenzaldehyde
Actelion Java MolfileCreator 2.0

  0  0  0  0  0  0              0 V3000
M  V30 BEGIN CTAB
M  V30 COUNTS 11 11 0 0 0
M  V30 BEGIN ATOM
M  V30 1 O 0.0 0.0 0.0 0
M  V30 2 C 1.2828 -0.6944 0.0 0
M  V30 3 C 1.2358 -2.1773 0.0 0
M  V30 4 C 2.5186 -2.8717 0.0 0
M  V30 5 C -0.1412 -2.8717 0.0 0
M  V30 6 C 2.4716 -4.3547 0.0 0
M  V30 7 C 3.8015 -2.0479 0.0 0
M  V30 8 C -0.1883 -4.3547 0.0 0
M  V30 9 C -1.5182 -2.0479 0.0 0
M  V30 10 C 1.0945 -5.0491 0.0 0
M  V30 11 C 3.7545 -5.0491 0.0 0
M  V30 END ATOM
M  V30 BEGIN BOND
M  V30 1 2 1 2
M  V30 2 1 2 3
M  V30 3 2 3 4
M  V30 4 1 3 5
M  V30 5 1 4 6
M  V30 6 1 4 7
M  V30 7 2 5 8
M  V30 8 1 5 9
M  V30 9 2 6 10
M  V30 10 1 6 11
M  V30 11 1 8 10
M  V30 END BOND
M  V30 END CTAB
M  END
>  <Molecule Name>
2,3,6-trimethylbenzaldehyde

>  <Molecule Name 2>
2,3,6-trimethylbenzaldehyde

>  <Database>
Essential Oil Database

>  <InChI>
InChI=1S/C10H12O/c1-7-4-5-8(2)10(6-11)9(7)3/h4-6H,1-3H3

>  <InChI-Key>
NHMDCMLCZRILTI-UHFFFAOYSA-N

>  <Smiles>
Cc1ccc(C)c(C=O)c1C

>  <Molecular Formula>
C10H12O

$$$$
1-nonadecanol
Actelion Java MolfileCreator 2.0

  0  0  0  0  0  0              0 V3000
M  V30 BEGIN CTAB
M  V30 COUNTS 20 19 0 0 0
M  V30 BEGIN ATOM
M  V30 1 O 0.0 0.0 0.0 0
M  V30 2 C 1.2831 0.8146 0.0 0
M  V30 3 C 2.5662 0.0814 0.0 0
M  V30 4 C 3.8494 0.8961 0.0 0
M  V30 5 C 5.1325 0.1629 0.0 0
M  V30 6 C 6.4157 0.9776 0.0 0
M  V30 7 C 7.6988 0.2444 0.0 0
M  V30 8 C 8.9819 1.0591 0.0 0
M  V30 9 C 10.2651 0.3258 0.0 0
M  V30 10 C 11.5482 1.1405 0.0 0
M  V30 11 C 12.8314 0.4073 0.0 0
M  V30 12 C 14.1145 1.222 0.0 0
M  V30 13 C 15.3976 0.4888 0.0 0
M  V30 14 C 16.6808 1.3035 0.0 0
M  V30 15 C 17.9639 0.5702 0.0 0
M  V30 16 C 19.2471 1.3849 0.0 0
M  V30 17 C 20.5302 0.6517 0.0 0
M  V30 18 C 21.8134 1.4664 0.0 0
M  V30 19 C 23.0965 0.7332 0.0 0
M  V30 20 C 24.3796 1.5479 0.0 0
M  V30 END ATOM
M  V30 BEGIN BOND
M  V30 1 1 1 2
M  V30 2 1 2 3
M  V30 3 1 3 4
M  V30 4 1 4 5
M  V30 5 1 5 6
M  V30 6 1 6 7
M  V30 7 1 7 8
M  V30 8 1 8 9
M  V30 9 1 9 10
M  V30 10 1 10 11
M  V30 11 1 11 12
M  V30 12 1 12 13
M  V30 13 1 13 14
M  V30 14 1 14 15
M  V30 15 1 15 16
M  V30 16 1 16 17
M  V30 17 1 17 18
M  V30 18 1 18 19
M  V30 19 1 19 20
M  V30 END BOND
M  V30 END CTAB
M  END
>  <Molecule Name>
1-nonadecanol

>  <Molecule Name 2>
1-nonadecanol

>  <Database>
Essential Oil Database

>  <InChI>
InChI=1S/C19H40O/c1-2-3-4-5-6-7-8-9-10-11-12-13-14-15-16-17-18-19-20/h20H,2-19H2,1H3

>  <InChI-Key>
XGFDHKJUZCCPKQ-UHFFFAOYSA-N

>  <Smiles>
CCCCCCCCCCCCCCCCCCCO

>  <Molecular Formula>
C19H40O

$$$$
linalyl propionate
Actelion Java MolfileCreator 2.0

  0  0  0  0  0  0              0 V3000
M  V30 BEGIN CTAB
M  V30 COUNTS 15 14 0 0 0
M  V30 BEGIN ATOM
M  V30 1 O 0.0 0.0 0.0 0
M  V30 2 C -0.7722 1.3394 0.0 0
M  V30 3 O -2.3168 1.3877 0.0 0
M  V30 4 C -0.0603 2.6789 0.0 0
M  V30 5 C -3.1012 0.1448 0.0 0 CFG=2
M  V30 6 C 1.3877 2.7271 0.0 0
M  V30 7 C -1.8583 -0.5792 0.0 0
M  V30 8 C -3.8856 -1.0981 0.0 0
M  V30 9 C -4.4407 0.9171 0.0 0
M  V30 10 C -1.9066 -2.0272 0.0 0
M  V30 11 C -5.4302 -1.0498 0.0 0
M  V30 12 C -6.2145 -2.2927 0.0 0
M  V30 13 C -7.7591 -2.2444 0.0 0
M  V30 14 C -8.5314 -3.4874 0.0 0
M  V30 15 C -8.5314 -0.905 0.0 0
M  V30 END ATOM
M  V30 BEGIN BOND
M  V30 1 2 1 2
M  V30 2 1 2 3
M  V30 3 1 2 4
M  V30 4 1 3 5
M  V30 5 1 4 6
M  V30 6 1 5 7
M  V30 7 1 5 8 CFG=3
M  V30 8 1 5 9
M  V30 9 2 7 10
M  V30 10 1 8 11
M  V30 11 1 11 12
M  V30 12 2 12 13
M  V30 13 1 13 14
M  V30 14 1 13 15
M  V30 END BOND
M  V30 BEGIN COLLECTION
M  V30 MDLV30/STERAC1 ATOMS=(1 5)
M  V30 END COLLECTION
M  V30 END CTAB
M  END
>  <Molecule Name>
linalyl propionate

>  <Molecule Name 2>
linalyl propionate

>  <Database>
Essential Oil Database

>  <InChI>
InChI=1S/C13H22O2/c1-6-12(14)15-13(5,7-2)10-8-9-11(3)4/h7,9H,2,6,8,10H2,1,3-5H3/t13-/m1/s1

>  <InChI-Key>
WAQIIHCCEMGYKP-CYBMUJFWSA-N

>  <Smiles>
CCC(OC(C)(CCC=C(C)C)C=C)=O

>  <Molecular Formula>
C13H22O2

$$$$
2,3-dimethoxytoluene
Actelion Java MolfileCreator 2.0

  0  0  0  0  0  0              0 V3000
M  V30 BEGIN CTAB
M  V30 COUNTS 11 11 0 0 0
M  V30 BEGIN ATOM
M  V30 1 O 0.0 0.0 0.0 0
M  V30 2 C -1.3464 -0.7156 0.0 0
M  V30 3 C 1.2493 -0.7156 0.0 0
M  V30 4 C -1.3949 -2.1712 0.0 0
M  V30 5 C -2.6928 0.0606 0.0 0
M  V30 6 O -0.1455 -2.8869 0.0 0
M  V30 7 C -2.7413 -2.8869 0.0 0
M  V30 8 C -4.0392 -0.655 0.0 0
M  V30 9 C -2.7413 1.6132 0.0 0
M  V30 10 C 1.1038 -2.0984 0.0 0
M  V30 11 C -4.0877 -2.0984 0.0 0
M  V30 END ATOM
M  V30 BEGIN BOND
M  V30 1 1 1 2
M  V30 2 1 1 3
M  V30 3 2 2 4
M  V30 4 1 2 5
M  V30 5 1 4 6
M  V30 6 1 4 7
M  V30 7 2 5 8
M  V30 8 1 5 9
M  V30 9 1 6 10
M  V30 10 2 7 11
M  V30 11 1 8 11
M  V30 END BOND
M  V30 END CTAB
M  END
>  <Molecule Name>
2,3-dimethoxytoluene

>  <Molecule Name 2>
2,3-dimethoxytoluene

>  <Database>
Essential Oil Database

>  <InChI>
InChI=1S/C9H12O2/c1-7-5-4-6-8(10-2)9(7)11-3/h4-6H,1-3H3

>  <InChI-Key>
WMXFNCKPYCAIQW-UHFFFAOYSA-N

>  <Smiles>
Cc1cccc(OC)c1OC

>  <Molecular Formula>
C9H12O2

$$$$
(e)-isoeugenol
Actelion Java MolfileCreator 2.0

  0  0  0  0  0  0              0 V3000
M  V30 BEGIN CTAB
M  V30 COUNTS 12 12 0 0 0
M  V30 BEGIN ATOM
M  V30 1 O 0.0 0.0 0.0 0
M  V30 2 C -0.0468 -1.4758 0.0 0
M  V30 3 C -1.3704 0.8199 0.0 0
M  V30 4 C -1.4172 -2.1669 0.0 0
M  V30 5 C 1.2298 -2.1669 0.0 0
M  V30 6 O -2.7877 -1.347 0.0 0
M  V30 7 C -1.4641 -3.6427 0.0 0
M  V30 8 C 1.183 -3.6427 0.0 0
M  V30 9 C -0.1874 -4.3338 0.0 0
M  V30 10 C 2.4597 -4.3338 0.0 0
M  V30 11 C 2.4129 -5.8097 0.0 0
M  V30 12 C 3.6896 -6.5476 0.0 0
M  V30 END ATOM
M  V30 BEGIN BOND
M  V30 1 1 1 2
M  V30 2 1 1 3
M  V30 3 2 2 4
M  V30 4 1 2 5
M  V30 5 1 4 6
M  V30 6 1 4 7
M  V30 7 2 5 8
M  V30 8 2 7 9
M  V30 9 1 8 10
M  V30 10 2 10 11 CFG=2
M  V30 11 1 11 12
M  V30 12 1 8 9
M  V30 END BOND
M  V30 END CTAB
M  END
>  <Molecule Name>
(e)-isoeugenol

>  <Molecule Name 2>
(e)-isoeugenol

>  <Database>
Essential Oil Database

>  <InChI>
InChI=1S/C10H12O2/c1-3-4-8-5-6-9(11)10(7-8)12-2/h3-7,11H,1-2H3

>  <InChI-Key>
BJIOGJUNALELMI-UHFFFAOYSA-N

>  <Smiles>
CC=Cc(cc1)cc(OC)c1O

>  <Molecular Formula>
C10H12O2

$$$$
ocimene
Actelion Java MolfileCreator 2.0

  0  0  0  0  0  0              0 V3000
M  V30 BEGIN CTAB
M  V30 COUNTS 10 9 0 0 0
M  V30 BEGIN ATOM
M  V30 1 C 0.0 0.0 0.0 0
M  V30 2 C -0.8101 -1.2615 0.0 0
M  V30 3 C 1.4582 0.0462 0.0 0
M  V30 4 C -0.8101 1.3541 0.0 0
M  V30 5 C -0.1273 -2.523 0.0 0
M  V30 6 C 2.1411 1.4004 0.0 0
M  V30 7 C 3.5994 1.4467 0.0 0
M  V30 8 C 4.2823 2.8008 0.0 0
M  V30 9 C 3.4721 4.1549 0.0 0
M  V30 10 C 5.7406 2.8471 0.0 0
M  V30 END ATOM
M  V30 BEGIN BOND
M  V30 1 1 1 2
M  V30 2 2 1 3
M  V30 3 1 1 4
M  V30 4 2 2 5
M  V30 5 1 3 6
M  V30 6 1 6 7
M  V30 7 1 7 8
M  V30 8 2 8 9
M  V30 9 1 8 10
M  V30 END BOND
M  V30 END CTAB
M  END
>  <Molecule Name>
ocimene

>  <Molecule Name 2>
ocimene

>  <Database>
Essential Oil Database

>  <InChI>
InChI=1S/C10H16/c1-5-10(4)8-6-7-9(2)3/h5,8H,1-2,6-7H2,3-4H3/b10-8+

>  <InChI-Key>
XJPBRODHZKDRCB-CSKARUKUSA-N

>  <Smiles>
CC(CC/C=C(\C)/C=C)=C

>  <Molecular Formula>
C10H16

$$$$
dimethyl trisulfide
Actelion Java MolfileCreator 2.0

  0  0  0  0  0  0              0 V3000
M  V30 BEGIN CTAB
M  V30 COUNTS 5 4 0 0 0
M  V30 BEGIN ATOM
M  V30 1 S 0.0 0.0 0.0 0
M  V30 2 S 1.4546 0.0484 0.0 0
M  V30 3 S -0.7758 1.3455 0.0 0
M  V30 4 C 2.1698 -1.2 0.0 0
M  V30 5 C -2.3274 1.394 0.0 0
M  V30 END ATOM
M  V30 BEGIN BOND
M  V30 1 1 1 2
M  V30 2 1 1 3
M  V30 3 1 2 4
M  V30 4 1 3 5
M  V30 END BOND
M  V30 END CTAB
M  END
>  <Molecule Name>
dimethyl trisulfide

>  <Molecule Name 2>
dimethyl trisulfide

>  <Database>
Essential Oil Database

>  <InChI>
InChI=1S/C2H6S3/c1-3-5-4-2/h1-2H3

>  <InChI-Key>
YWHLKYXPLRWGSE-UHFFFAOYSA-N

>  <Smiles>
CSSSC

>  <Molecular Formula>
C2H6S3

$$$$
1.4-dimethyl tetrasulfide
Actelion Java MolfileCreator 2.0

  0  0  0  0  0  0              0 V3000
M  V30 BEGIN CTAB
M  V30 COUNTS 6 5 0 0 0
M  V30 BEGIN ATOM
M  V30 1 S 0.0 0.0 0.0 0
M  V30 2 S -1.3448 -0.6934 0.0 0
M  V30 3 S 1.2608 -0.6934 0.0 0
M  V30 4 S -2.6897 0.084 0.0 0
M  V30 5 C 2.5216 0.084 0.0 0
M  V30 6 C -4.0346 -0.6094 0.0 0
M  V30 END ATOM
M  V30 BEGIN BOND
M  V30 1 1 1 2
M  V30 2 1 1 3
M  V30 3 1 2 4
M  V30 4 1 3 5
M  V30 5 1 4 6
M  V30 END BOND
M  V30 END CTAB
M  END
>  <Molecule Name>
1.4-dimethyl tetrasulfide

>  <Molecule Name 2>
1.4-dimethyl tetrasulfide

>  <Database>
Essential Oil Database

>  <InChI>
InChI=1S/C2H6S4/c1-3-5-6-4-2/h1-2H3

>  <InChI-Key>
NPNIZCVKXVRCHF-UHFFFAOYSA-N

>  <Smiles>
CSSSSC

>  <Molecular Formula>
C2H6S4

$$$$
diallyl sulfide
Actelion Java MolfileCreator 2.0

  0  0  0  0  0  0              0 V3000
M  V30 BEGIN CTAB
M  V30 COUNTS 7 6 0 0 0
M  V30 BEGIN ATOM
M  V30 1 S 0.0 0.0 0.0 0
M  V30 2 C -1.3416 0.7756 0.0 0
M  V30 3 C 1.2578 0.7756 0.0 0
M  V30 4 C -2.6833 0.0838 0.0 0
M  V30 5 C 2.5156 0.0838 0.0 0
M  V30 6 C -4.025 0.8595 0.0 0
M  V30 7 C 3.7734 0.8595 0.0 0
M  V30 END ATOM
M  V30 BEGIN BOND
M  V30 1 1 1 2
M  V30 2 1 1 3
M  V30 3 1 2 4
M  V30 4 1 3 5
M  V30 5 2 4 6
M  V30 6 2 5 7
M  V30 END BOND
M  V30 END CTAB
M  END
>  <Molecule Name>
diallyl sulfide

>  <Molecule Name 2>
diallyl sulfide

>  <Database>
Essential Oil Database

>  <InChI>
InChI=1S/C6H10S/c1-3-5-7-6-4-2/h3-4H,1-2,5-6H2

>  <InChI-Key>
UBJVUCKUDDKUJF-UHFFFAOYSA-N

>  <Smiles>
C=CCSCC=C

>  <Molecular Formula>
C6H10S

$$$$
methyl allyl disulfide
Actelion Java MolfileCreator 2.0

  0  0  0  0  0  0              0 V3000
M  V30 BEGIN CTAB
M  V30 COUNTS 6 5 0 0 0
M  V30 BEGIN ATOM
M  V30 1 S 0.0 0.0 0.0 0
M  V30 2 S -1.3506 0.7808 0.0 0
M  V30 3 C 1.2662 0.7808 0.0 0
M  V30 4 C -2.7012 0.0844 0.0 0
M  V30 5 C 2.5324 0.0844 0.0 0
M  V30 6 C 3.7986 0.8652 0.0 0
M  V30 END ATOM
M  V30 BEGIN BOND
M  V30 1 1 1 2
M  V30 2 1 1 3
M  V30 3 1 2 4
M  V30 4 1 3 5
M  V30 5 2 5 6
M  V30 END BOND
M  V30 END CTAB
M  END
>  <Molecule Name>
methyl allyl disulfide

>  <Molecule Name 2>
methyl allyl disulfide

>  <Database>
Essential Oil Database

>  <InChI>
InChI=1S/C4H8S2/c1-3-4-6-5-2/h3H,1,4H2,2H3

>  <InChI-Key>
XNZOTQPMYMCTBZ-UHFFFAOYSA-N

>  <Smiles>
CSSCC=C

>  <Molecular Formula>
C4H8S2

$$$$
alpha-bisabolene
Actelion Java MolfileCreator 2.0

  0  0  0  0  0  0              0 V3000
M  V30 BEGIN CTAB
M  V30 COUNTS 15 15 0 0 0
M  V30 BEGIN ATOM
M  V30 1 C 0.0 0.0 0.0 0
M  V30 2 C -1.3395 0.7723 0.0 0
M  V30 3 C 1.243 0.7723 0.0 0
M  V30 4 C -0.0482 -1.4481 0.0 0
M  V30 5 C -1.3878 2.3171 0.0 0
M  V30 6 C 1.1947 2.3171 0.0 0
M  V30 7 C -0.1448 3.1015 0.0 0 CFG=2
M  V30 8 C -0.193 4.6462 0.0 0
M  V30 9 C 1.0499 5.4186 0.0 0
M  V30 10 C -1.5326 5.4186 0.0 0
M  V30 11 C 1.0016 6.9634 0.0 0
M  V30 12 C 2.2447 7.7478 0.0 0
M  V30 13 C 3.4877 7.0237 0.0 0
M  V30 14 C 4.7307 7.8081 0.0 0
M  V30 15 C 3.4394 5.5755 0.0 0
M  V30 END ATOM
M  V30 BEGIN BOND
M  V30 1 2 1 2
M  V30 2 1 1 3
M  V30 3 1 1 4
M  V30 4 1 2 5
M  V30 5 1 3 6
M  V30 6 1 5 7
M  V30 7 1 7 8 CFG=1
M  V30 8 2 8 9 CFG=2
M  V30 9 1 8 10
M  V30 10 1 9 11
M  V30 11 1 11 12
M  V30 12 2 12 13
M  V30 13 1 13 14
M  V30 14 1 13 15
M  V30 15 1 6 7
M  V30 END BOND
M  V30 BEGIN COLLECTION
M  V30 MDLV30/STERAC1 ATOMS=(1 7)
M  V30 END COLLECTION
M  V30 END CTAB
M  END
>  <Molecule Name>
alpha-bisabolene

>  <Molecule Name 2>
alpha-bisabolene

>  <Database>
Essential Oil Database

>  <InChI>
InChI=1S/C15H24/c1-12(2)6-5-7-14(4)15-10-8-13(3)9-11-15/h6-8,15H,5,9-11H2,1-4H3/t15-/m1/s1

>  <InChI-Key>
YHBUQBJHSRGZNF-OAHLLOKOSA-N

>  <Smiles>
CC(C)=CCC=C(C)C1CC=C(C)CC1

>  <Molecular Formula>
C15H24

$$$$
diallyl tetrasulfide
Actelion Java MolfileCreator 2.0

  0  0  0  0  0  0              0 V3000
M  V30 BEGIN CTAB
M  V30 COUNTS 10 9 0 0 0
M  V30 BEGIN ATOM
M  V30 1 S 0.0 0.0 0.0 0
M  V30 2 S 1.265 0.7801 0.0 0
M  V30 3 S -1.3493 0.7801 0.0 0
M  V30 4 S 2.53 0.0843 0.0 0
M  V30 5 C -2.6987 0.0843 0.0 0
M  V30 6 C 3.7951 0.8644 0.0 0
M  V30 7 C -4.0481 0.8644 0.0 0
M  V30 8 C 5.0601 0.1686 0.0 0
M  V30 9 C -5.3975 0.1686 0.0 0
M  V30 10 C 6.3252 0.9487 0.0 0
M  V30 END ATOM
M  V30 BEGIN BOND
M  V30 1 1 1 2
M  V30 2 1 1 3
M  V30 3 1 2 4
M  V30 4 1 3 5
M  V30 5 1 4 6
M  V30 6 1 5 7
M  V30 7 1 6 8
M  V30 8 2 7 9
M  V30 9 2 8 10
M  V30 END BOND
M  V30 END CTAB
M  END
>  <Molecule Name>
diallyl tetrasulfide

>  <Molecule Name 2>
diallyl tetrasulfide

>  <Database>
Essential Oil Database

>  <InChI>
InChI=1S/C6H10S4/c1-3-5-7-9-10-8-6-4-2/h3-4H,1-2,5-6H2

>  <InChI-Key>
RMKCQUWJDRTEHE-UHFFFAOYSA-N

>  <Smiles>
C=CCSSSSCC=C

>  <Molecular Formula>
C6H10S4

$$$$
2-vinyl-1.3-dithiane
Actelion Java MolfileCreator 2.0

  0  0  0  0  0  0              0 V3000
M  V30 BEGIN CTAB
M  V30 COUNTS 8 8 0 0 0
M  V30 BEGIN ATOM
M  V30 1 S 0.0 0.0 0.0 0
M  V30 2 C -1.3247 0.7757 0.0 0
M  V30 3 C -0.0477 -1.4321 0.0 0
M  V30 4 S -2.6494 0.0716 0.0 0
M  V30 5 C -1.3724 2.3033 0.0 0
M  V30 6 C -1.3724 -2.1362 0.0 0
M  V30 7 C -2.6971 -1.3605 0.0 0
M  V30 8 C -2.6971 3.079 0.0 0
M  V30 END ATOM
M  V30 BEGIN BOND
M  V30 1 1 1 2
M  V30 2 1 1 3
M  V30 3 1 2 4
M  V30 4 1 2 5
M  V30 5 1 3 6
M  V30 6 1 4 7
M  V30 7 2 5 8
M  V30 8 1 6 7
M  V30 END BOND
M  V30 END CTAB
M  END
>  <Molecule Name>
2-vinyl-1.3-dithiane

>  <Molecule Name 2>
2-vinyl-1.3-dithiane

>  <Database>
Essential Oil Database

>  <InChI>
InChI=1S/C6H10S2/c1-2-6-7-4-3-5-8-6/h2,6H,1,3-5H2

>  <InChI-Key>
SIZZLUKBSIWVMD-UHFFFAOYSA-N

>  <Smiles>
C=CC1SCCCS1

>  <Molecular Formula>
C6H10S2

$$$$
methyl allyl trisulfide
Actelion Java MolfileCreator 2.0

  0  0  0  0  0  0              0 V3000
M  V30 BEGIN CTAB
M  V30 COUNTS 7 6 0 0 0
M  V30 BEGIN ATOM
M  V30 1 S 0.0 0.0 0.0 0
M  V30 2 S 1.2739 -0.7006 0.0 0
M  V30 3 S -1.3589 -0.7006 0.0 0
M  V30 4 C 2.5479 0.0849 0.0 0
M  V30 5 C -2.7178 0.0849 0.0 0
M  V30 6 C 3.8219 -0.6157 0.0 0
M  V30 7 C 5.0959 0.1698 0.0 0
M  V30 END ATOM
M  V30 BEGIN BOND
M  V30 1 1 1 2
M  V30 2 1 1 3
M  V30 3 1 2 4
M  V30 4 1 3 5
M  V30 5 1 4 6
M  V30 6 2 6 7
M  V30 END BOND
M  V30 END CTAB
M  END
>  <Molecule Name>
methyl allyl trisulfide

>  <Molecule Name 2>
methyl allyl trisulfide

>  <Database>
Essential Oil Database

>  <InChI>
InChI=1S/C4H8S3/c1-3-4-6-7-5-2/h3H,1,4H2,2H3

>  <InChI-Key>
JGMPRNFEEAJLAJ-UHFFFAOYSA-N

>  <Smiles>
CSSSCC=C

>  <Molecular Formula>
C4H8S3

$$$$
diallyl trisulfide
Actelion Java MolfileCreator 2.0

  0  0  0  0  0  0              0 V3000
M  V30 BEGIN CTAB
M  V30 COUNTS 9 8 0 0 0
M  V30 BEGIN ATOM
M  V30 1 S 0.0 0.0 0.0 0
M  V30 2 S -1.3478 -0.6949 0.0 0
M  V30 3 S 1.2636 -0.6949 0.0 0
M  V30 4 C -2.6956 0.0842 0.0 0
M  V30 5 C 2.5272 0.0842 0.0 0
M  V30 6 C -4.0435 -0.6107 0.0 0
M  V30 7 C 3.7908 -0.6107 0.0 0
M  V30 8 C -5.3913 0.1684 0.0 0
M  V30 9 C 5.0544 0.1684 0.0 0
M  V30 END ATOM
M  V30 BEGIN BOND
M  V30 1 1 1 2
M  V30 2 1 1 3
M  V30 3 1 2 4
M  V30 4 1 3 5
M  V30 5 1 4 6
M  V30 6 1 5 7
M  V30 7 2 6 8
M  V30 8 2 7 9
M  V30 END BOND
M  V30 END CTAB
M  END
>  <Molecule Name>
diallyl trisulfide

>  <Molecule Name 2>
diallyl trisulfide

>  <Database>
Essential Oil Database

>  <InChI>
InChI=1S/C6H10S3/c1-3-5-7-9-8-6-4-2/h3-4H,1-2,5-6H2

>  <InChI-Key>
UBAXRAHSPKWNCX-UHFFFAOYSA-N

>  <Smiles>
C=CCSSSCC=C

>  <Molecular Formula>
C6H10S3

$$$$
hexyl tiglate
Actelion Java MolfileCreator 2.0

  0  0  0  0  0  0              0 V3000
M  V30 BEGIN CTAB
M  V30 COUNTS 13 12 0 0 0
M  V30 BEGIN ATOM
M  V30 1 O 0.0 0.0 0.0 0
M  V30 2 C -0.0484 1.5505 0.0 0
M  V30 3 O 1.1992 2.35 0.0 0
M  V30 4 C -1.393 2.35 0.0 0
M  V30 5 C 2.4469 1.6232 0.0 0
M  V30 6 C -1.4415 3.9006 0.0 0
M  V30 7 C -2.7377 1.6232 0.0 0
M  V30 8 C 3.6947 2.4106 0.0 0
M  V30 9 C -2.7861 4.7001 0.0 0
M  V30 10 C 4.9424 1.6838 0.0 0
M  V30 11 C 6.1901 2.4712 0.0 0
M  V30 12 C 7.4379 1.7443 0.0 0
M  V30 13 C 8.6856 2.5317 0.0 0
M  V30 END ATOM
M  V30 BEGIN BOND
M  V30 1 2 1 2
M  V30 2 1 2 3
M  V30 3 1 2 4
M  V30 4 1 3 5
M  V30 5 2 4 6
M  V30 6 1 4 7
M  V30 7 1 5 8
M  V30 8 1 6 9
M  V30 9 1 8 10
M  V30 10 1 10 11
M  V30 11 1 11 12
M  V30 12 1 12 13
M  V30 END BOND
M  V30 END CTAB
M  END
>  <Molecule Name>
hexyl tiglate

>  <Molecule Name 2>
hexyl tiglate

>  <Database>
Essential Oil Database

>  <InChI>
InChI=1S/C11H20O2/c1-4-6-7-8-9-13-11(12)10(3)5-2/h5H,4,6-9H2,1-3H3/b10-5+

>  <InChI-Key>
JTCIUOKKVACNCK-BJMVGYQFSA-N

>  <Smiles>
CCCCCCOC(/C(\C)=C/C)=O

>  <Molecular Formula>
C11H20O2

$$$$
isopulegyl acetate
Actelion Java MolfileCreator 2.0

  0  0  0  0  0  0              0 V3000
M  V30 BEGIN CTAB
M  V30 COUNTS 14 14 0 0 0
M  V30 BEGIN ATOM
M  V30 1 O 0.0 0.0 0.0 0
M  V30 2 C -0.0489 -1.4677 0.0 0
M  V30 3 O 1.2109 -2.1894 0.0 0
M  V30 4 C -1.4066 -2.1894 0.0 0
M  V30 5 C 2.4707 -1.3943 0.0 0 CFG=1
M  V30 6 C 3.7305 -2.116 0.0 0 CFG=2
M  V30 7 C 2.4218 0.1712 0.0 0
M  V30 8 C 3.6816 -3.5837 0.0 0
M  V30 9 C 4.9904 -1.3209 0.0 0
M  V30 10 C 3.6816 0.9662 0.0 0 CFG=1
M  V30 11 C 4.9414 -4.3176 0.0 0
M  V30 12 C 2.3239 -4.3176 0.0 0
M  V30 13 C 4.9414 0.2446 0.0 0
M  V30 14 C 3.6327 2.5318 0.0 0
M  V30 END ATOM
M  V30 BEGIN BOND
M  V30 1 2 1 2
M  V30 2 1 2 3
M  V30 3 1 2 4
M  V30 4 1 5 3 CFG=3
M  V30 5 1 5 6
M  V30 6 1 5 7
M  V30 7 1 6 8 CFG=1
M  V30 8 1 6 9
M  V30 9 1 7 10
M  V30 10 2 8 11
M  V30 11 1 8 12
M  V30 12 1 9 13
M  V30 13 1 10 14 CFG=3
M  V30 14 1 10 13
M  V30 END BOND
M  V30 BEGIN COLLECTION
M  V30 MDLV30/STEABS ATOMS=(3 5 6 10)
M  V30 END COLLECTION
M  V30 END CTAB
M  END
>  <Molecule Name>
isopulegyl acetate

>  <Molecule Name 2>
isopulegyl acetate

>  <Database>
Essential Oil Database

>  <InChI>
InChI=1S/C12H20O2/c1-8(2)11-6-5-9(3)7-12(11)14-10(4)13/h9,11-12H,1,5-7H2,2-4H3/t9-,11+,12-/m1/s1

>  <InChI-Key>
HLHIVJRLODSUCI-ADEWGFFLSA-N

>  <Smiles>
C[C@H](CC[C@H]1C(C)=C)C[C@H]1OC(C)=O

>  <Molecular Formula>
C12H20O2

$$$$
p-menth-3-ene-2,7-diol
Actelion Java MolfileCreator 2.0

  0  0  0  0  0  0              0 V3000
M  V30 BEGIN CTAB
M  V30 COUNTS 12 12 0 0 0
M  V30 BEGIN ATOM
M  V30 1 O 0.0 0.0 0.0 0
M  V30 2 C 1.2694 -0.7271 0.0 0
M  V30 3 C 1.2201 -2.2061 0.0 0
M  V30 4 C 2.5389 0.0616 0.0 0
M  V30 5 C 2.4896 -2.9333 0.0 0
M  V30 6 C 3.8084 -0.6655 0.0 0
M  V30 7 C 2.4896 1.6392 0.0 0
M  V30 8 C 2.4403 -4.4123 0.0 0
M  V30 9 C 3.7591 -2.1322 0.0 0
M  V30 10 O 1.1215 2.4403 0.0 0
M  V30 11 C 1.0722 -5.1518 0.0 0
M  V30 12 C 3.7098 -5.1518 0.0 0
M  V30 END ATOM
M  V30 BEGIN BOND
M  V30 1 1 1 2
M  V30 2 1 2 3
M  V30 3 1 2 4
M  V30 4 2 3 5
M  V30 5 1 4 6
M  V30 6 1 4 7
M  V30 7 1 5 8
M  V30 8 1 5 9
M  V30 9 1 7 10
M  V30 10 1 8 11
M  V30 11 1 8 12
M  V30 12 1 6 9
M  V30 END BOND
M  V30 END CTAB
M  END
>  <Molecule Name>
p-menth-3-ene-2,7-diol

>  <Molecule Name 2>
p-menth-3-ene-2,7-diol

>  <Database>
Essential Oil Database

>  <InChI>
InChI=1S/C10H18O2/c1-7(2)8-3-4-9(6-11)10(12)5-8/h5,7,9-12H,3-4,6H2,1-2H3

>  <InChI-Key>
FRNBVVONDSTQKT-UHFFFAOYSA-N

>  <Smiles>
CC(C)C(CCC1CO)=CC1O

>  <Molecular Formula>
C10H18O2

$$$$
1-hydroxy-2-heptanone
Actelion Java MolfileCreator 2.0

  0  0  0  0  0  0              0 V3000
M  V30 BEGIN CTAB
M  V30 COUNTS 9 8 0 0 0
M  V30 BEGIN ATOM
M  V30 1 O 0.0 0.0 0.0 0
M  V30 2 C -0.0486 1.5567 0.0 0
M  V30 3 C -1.3986 2.3473 0.0 0
M  V30 4 C 1.204 2.3473 0.0 0
M  V30 5 O -2.7486 1.6175 0.0 0
M  V30 6 C 2.4567 1.6175 0.0 0
M  V30 7 C 3.7094 2.4081 0.0 0
M  V30 8 C 4.9621 1.6783 0.0 0
M  V30 9 C 6.2149 2.4689 0.0 0
M  V30 END ATOM
M  V30 BEGIN BOND
M  V30 1 2 1 2
M  V30 2 1 2 3
M  V30 3 1 2 4
M  V30 4 1 3 5
M  V30 5 1 4 6
M  V30 6 1 6 7
M  V30 7 1 7 8
M  V30 8 1 8 9
M  V30 END BOND
M  V30 END CTAB
M  END
>  <Molecule Name>
1-hydroxy-2-heptanone

>  <Molecule Name 2>
1-hydroxy-2-heptanone

>  <Database>
Essential Oil Database

>  <InChI>
InChI=1S/C7H14O2/c1-2-3-4-5-7(9)6-8/h8H,2-6H2,1H3

>  <InChI-Key>
GDVFVEWTCYWKGV-UHFFFAOYSA-N

>  <Smiles>
CCCCCC(CO)=O

>  <Molecular Formula>
C7H14O2

$$$$
2-cyclohexene-1,4-diene
Actelion Java MolfileCreator 2.0

  0  0  0  0  0  0              0 V3000
M  V30 BEGIN CTAB
M  V30 COUNTS 6 6 0 0 0
M  V30 BEGIN ATOM
M  V30 1 C 0.0 0.0 0.0 0 CFG=2
M  V30 2 C -0.0457 -1.4411 0.0 0
M  V30 3 C -1.3381 0.8006 0.0 0
M  V30 4 C -1.3839 -2.1159 0.0 0
M  V30 5 C -2.6763 0.1258 0.0 0
M  V30 6 C -2.7221 -1.3153 0.0 0
M  V30 END ATOM
M  V30 BEGIN BOND
M  V30 1 2 1 2
M  V30 2 2 1 3
M  V30 3 1 2 4 CFG=3
M  V30 4 1 3 5
M  V30 5 2 4 6
M  V30 6 1 5 6
M  V30 END BOND
M  V30 BEGIN COLLECTION
M  V30 MDLV30/STERAC1 ATOMS=(1 1)
M  V30 END COLLECTION
M  V30 END CTAB
M  END
>  <Molecule Name>
2-cyclohexene-1,4-diene

>  <Molecule Name 2>
2-cyclohexene-1,4-diene

>  <Database>
Essential Oil Database

>  <InChI>
InChI=1S/C6H6/c1-2-4-6-5-3-1/h1-3,6H,4H2

>  <InChI-Key>
QJJOAYUATFWLKY-UHFFFAOYSA-N

>  <Smiles>
C1C=C=CC=C1

>  <Molecular Formula>
C6H6

$$$$
2-ethyl-cyclohexanone
Actelion Java MolfileCreator 2.0

  0  0  0  0  0  0              0 V3000
M  V30 BEGIN CTAB
M  V30 COUNTS 9 9 0 0 0
M  V30 BEGIN ATOM
M  V30 1 O 0.0 0.0 0.0 0
M  V30 2 C -0.0491 -1.4735 0.0 0
M  V30 3 C 1.2156 -2.1979 0.0 0 CFG=2
M  V30 4 C -1.4121 -2.1979 0.0 0
M  V30 5 C 1.1665 -3.6715 0.0 0
M  V30 6 C 2.4804 -1.3875 0.0 0
M  V30 7 C -1.4612 -3.6715 0.0 0
M  V30 8 C -0.1964 -4.3959 0.0 0
M  V30 9 C 2.4313 0.1841 0.0 0
M  V30 END ATOM
M  V30 BEGIN BOND
M  V30 1 2 1 2
M  V30 2 1 2 3
M  V30 3 1 2 4
M  V30 4 1 3 5
M  V30 5 1 3 6 CFG=1
M  V30 6 1 4 7
M  V30 7 1 5 8
M  V30 8 1 6 9
M  V30 9 1 7 8
M  V30 END BOND
M  V30 BEGIN COLLECTION
M  V30 MDLV30/STERAC1 ATOMS=(1 3)
M  V30 END COLLECTION
M  V30 END CTAB
M  END
>  <Molecule Name>
2-ethyl-cyclohexanone

>  <Molecule Name 2>
2-ethyl-cyclohexanone

>  <Database>
Essential Oil Database

>  <InChI>
InChI=1S/C8H14O/c1-2-7-5-3-4-6-8(7)9/h7H,2-6H2,1H3/t7-/m0/s1

>  <InChI-Key>
WKYYYUWKFPFVEY-ZETCQYMHSA-N

>  <Smiles>
CCC(CCCC1)C1=O

>  <Molecular Formula>
C8H14O

$$$$
isobutyric acid
Actelion Java MolfileCreator 2.0

  0  0  0  0  0  0              0 V3000
M  V30 BEGIN CTAB
M  V30 COUNTS 6 5 0 0 0
M  V30 BEGIN ATOM
M  V30 1 O 0.0 0.0 0.0 0
M  V30 2 C 1.4686 0.0466 0.0 0
M  V30 3 O 2.1563 -1.2238 0.0 0
M  V30 4 C 2.1563 1.4103 0.0 0
M  V30 5 C 1.3404 2.7741 0.0 0
M  V30 6 C 3.625 1.4569 0.0 0
M  V30 END ATOM
M  V30 BEGIN BOND
M  V30 1 2 1 2
M  V30 2 1 2 3
M  V30 3 1 2 4
M  V30 4 1 4 5
M  V30 5 1 4 6
M  V30 END BOND
M  V30 END CTAB
M  END
>  <Molecule Name>
isobutyric acid

>  <Molecule Name 2>
isobutyric acid

>  <Database>
Essential Oil Database

>  <InChI>
InChI=1S/C4H8O2/c1-3(2)4(5)6/h3H,1-2H3,(H,5,6)

>  <InChI-Key>
KQNPFQTWMSNSAP-UHFFFAOYSA-N

>  <Smiles>
CC(C)C(O)=O

>  <Molecular Formula>
C4H8O2

$$$$
neryl tiglate
Actelion Java MolfileCreator 2.0

  0  0  0  0  0  0              0 V3000
M  V30 BEGIN CTAB
M  V30 COUNTS 17 16 0 0 0
M  V30 BEGIN ATOM
M  V30 1 O 0.0 0.0 0.0 0
M  V30 2 C 0.7075 1.331 0.0 0
M  V30 3 O -0.0599 2.6621 0.0 0
M  V30 4 C 2.1465 1.379 0.0 0
M  V30 5 C -1.5949 2.7101 0.0 0
M  V30 6 C 2.854 0.1439 0.0 0
M  V30 7 C 2.854 2.7101 0.0 0
M  V30 8 C -2.3743 4.0412 0.0 0
M  V30 9 C 4.293 0.1918 0.0 0
M  V30 10 C -3.9093 4.0891 0.0 0
M  V30 11 C -4.6887 2.854 0.0 0
M  V30 12 C -4.6887 5.4202 0.0 0
M  V30 13 C -6.2237 2.902 0.0 0
M  V30 14 C -6.9911 1.6668 0.0 0
M  V30 15 C -8.5261 1.7148 0.0 0
M  V30 16 C -9.3056 0.4796 0.0 0
M  V30 17 C -9.3056 3.0459 0.0 0
M  V30 END ATOM
M  V30 BEGIN BOND
M  V30 1 2 1 2
M  V30 2 1 2 3
M  V30 3 1 2 4
M  V30 4 1 3 5
M  V30 5 2 4 6
M  V30 6 1 4 7
M  V30 7 1 5 8
M  V30 8 1 6 9
M  V30 9 2 8 10
M  V30 10 1 10 11
M  V30 11 1 10 12
M  V30 12 1 11 13
M  V30 13 1 13 14
M  V30 14 2 14 15
M  V30 15 1 15 16
M  V30 16 1 15 17
M  V30 END BOND
M  V30 END CTAB
M  END
>  <Molecule Name>
neryl tiglate

>  <Molecule Name 2>
neryl tiglate

>  <Database>
Essential Oil Database

>  <InChI>
InChI=1S/C15H24O2/c1-6-14(5)15(16)17-11-10-13(4)9-7-8-12(2)3/h6,8,10H,7,9,11H2,1-5H3/b13-10-,14-6+

>  <InChI-Key>
OGHBUHJLMHQMHS-FVJRQPFYSA-N

>  <Smiles>
C/C=C(\C)/C(OC/C=C(/C)\CCC=C(C)C)=O

>  <Molecular Formula>
C15H24O2

$$$$
phenyl acetate
Actelion Java MolfileCreator 2.0

  0  0  0  0  0  0              0 V3000
M  V30 BEGIN CTAB
M  V30 COUNTS 10 10 0 0 0
M  V30 BEGIN ATOM
M  V30 1 O 0.0 0.0 0.0 0
M  V30 2 C -0.0472 -1.4891 0.0 0
M  V30 3 O 1.2409 -2.1864 0.0 0
M  V30 4 C -1.43 -2.1864 0.0 0
M  V30 5 C 1.1936 -3.6755 0.0 0
M  V30 6 C 2.4819 -4.3728 0.0 0
M  V30 7 C -0.189 -4.3728 0.0 0
M  V30 8 C 2.4346 -5.862 0.0 0
M  V30 9 C -0.2363 -5.862 0.0 0
M  V30 10 C 1.0518 -6.5593 0.0 0
M  V30 END ATOM
M  V30 BEGIN BOND
M  V30 1 2 1 2
M  V30 2 1 2 3
M  V30 3 1 2 4
M  V30 4 1 3 5
M  V30 5 2 5 6
M  V30 6 1 5 7
M  V30 7 1 6 8
M  V30 8 2 7 9
M  V30 9 2 8 10
M  V30 10 1 9 10
M  V30 END BOND
M  V30 END CTAB
M  END
>  <Molecule Name>
phenyl acetate

>  <Molecule Name 2>
phenyl acetate

>  <Database>
Essential Oil Database

>  <InChI>
InChI=1S/C8H8O2/c1-7(9)10-8-5-3-2-4-6-8/h2-6H,1H3

>  <InChI-Key>
IPBVNPXQWQGGJP-UHFFFAOYSA-N

>  <Smiles>
CC(Oc1ccccc1)=O

>  <Molecular Formula>
C8H8O2

$$$$
2,3-dihydro-2-octyl-5-methylfuran-3-one
Actelion Java MolfileCreator 2.0

  0  0  0  0  0  0              0 V3000
M  V30 BEGIN CTAB
M  V30 COUNTS 15 15 0 0 0
M  V30 BEGIN ATOM
M  V30 1 O 0.0 0.0 0.0 0
M  V30 2 C 0.2782 1.5242 0.0 0
M  V30 3 C -0.7621 2.6855 0.0 0
M  V30 4 C 1.6089 2.2016 0.0 0 CFG=1
M  V30 5 C -0.0483 4.0404 0.0 0
M  V30 6 O 1.4032 3.7501 0.0 0
M  V30 7 C 2.867 1.4758 0.0 0
M  V30 8 C -0.7258 5.4679 0.0 0
M  V30 9 C 4.1251 2.2621 0.0 0
M  V30 10 C 5.3832 1.5363 0.0 0
M  V30 11 C 6.6413 2.3226 0.0 0
M  V30 12 C 7.8994 1.5968 0.0 0
M  V30 13 C 9.1575 2.3831 0.0 0
M  V30 14 C 10.4156 1.6573 0.0 0
M  V30 15 C 11.6737 2.4436 0.0 0
M  V30 END ATOM
M  V30 BEGIN BOND
M  V30 1 2 1 2
M  V30 2 1 2 3
M  V30 3 1 2 4
M  V30 4 2 3 5
M  V30 5 1 4 6
M  V30 6 1 4 7 CFG=1
M  V30 7 1 5 8
M  V30 8 1 7 9
M  V30 9 1 9 10
M  V30 10 1 10 11
M  V30 11 1 11 12
M  V30 12 1 12 13
M  V30 13 1 13 14
M  V30 14 1 14 15
M  V30 15 1 5 6
M  V30 END BOND
M  V30 BEGIN COLLECTION
M  V30 MDLV30/STERAC1 ATOMS=(1 4)
M  V30 END COLLECTION
M  V30 END CTAB
M  END
>  <Molecule Name>
2,3-dihydro-2-octyl-5-methylfuran-3-one

>  <Molecule Name 2>
2,3-dihydro-2-octyl-5-methylfuran-3-one

>  <Database>
Essential Oil Database

>  <InChI>
InChI=1S/C13H22O2/c1-3-4-5-6-7-8-9-13-12(14)10-11(2)15-13/h10,13H,3-9H2,1-2H3/t13-/m0/s1

>  <InChI-Key>
ZLLDSWALGJWTSW-ZDUSSCGKSA-N

>  <Smiles>
CCCCCCCCC1OC(C)=CC1=O

>  <Molecular Formula>
C13H22O2

$$$$
2,4-dimethylthiophene
Actelion Java MolfileCreator 2.0

  0  0  0  0  0  0              0 V3000
M  V30 BEGIN CTAB
M  V30 COUNTS 7 7 0 0 0
M  V30 BEGIN ATOM
M  V30 1 S 0.0 0.0 0.0 0
M  V30 2 C -1.5126 0.0472 0.0 0
M  V30 3 C 0.4136 1.4417 0.0 0
M  V30 4 C -2.0208 1.489 0.0 0
M  V30 5 C -2.4107 -1.0872 0.0 0
M  V30 6 C -0.8154 2.3398 0.0 0
M  V30 7 C -0.8626 3.8525 0.0 0
M  V30 END ATOM
M  V30 BEGIN BOND
M  V30 1 1 1 2
M  V30 2 1 1 3
M  V30 3 2 2 4
M  V30 4 1 2 5
M  V30 5 2 3 6
M  V30 6 1 6 7
M  V30 7 1 4 6
M  V30 END BOND
M  V30 END CTAB
M  END
>  <Molecule Name>
2,4-dimethylthiophene

>  <Molecule Name 2>
2,4-dimethylthiophene

>  <Database>
Essential Oil Database

>  <InChI>
InChI=1S/C6H8S/c1-5-3-6(2)7-4-5/h3-4H,1-2H3

>  <InChI-Key>
CPULIKNSOUFMPL-UHFFFAOYSA-N

>  <Smiles>
Cc1c[s]c(C)c1

>  <Molecular Formula>
C6H8S

$$$$
dimethyl disulfide
Actelion Java MolfileCreator 2.0

  0  0  0  0  0  0              0 V3000
M  V30 BEGIN CTAB
M  V30 COUNTS 4 3 0 0 0
M  V30 BEGIN ATOM
M  V30 1 S 0.0 0.0 0.0 0
M  V30 2 S -0.7763 1.3257 0.0 0
M  V30 3 C 1.4332 0.0477 0.0 0
M  V30 4 C -2.3051 1.3735 0.0 0
M  V30 END ATOM
M  V30 BEGIN BOND
M  V30 1 1 1 2
M  V30 2 1 1 3
M  V30 3 1 2 4
M  V30 END BOND
M  V30 END CTAB
M  END
>  <Molecule Name>
dimethyl disulfide

>  <Molecule Name 2>
dimethyl disulfide

>  <Database>
Essential Oil Database

>  <InChI>
InChI=1S/C2H6S2/c1-3-4-2/h1-2H3

>  <InChI-Key>
WQOXQRCZOLPYPM-UHFFFAOYSA-N

>  <Smiles>
CSSC

>  <Molecular Formula>
C2H6S2

$$$$
methyl-2-propenyl disulfide
Actelion Java MolfileCreator 2.0

  0  0  0  0  0  0              0 V3000
M  V30 BEGIN CTAB
M  V30 COUNTS 10 9 0 0 0
M  V30 BEGIN ATOM
M  V30 1 S 0.0 0.0 0.0 0
M  V30 2 S -1.3402 0.7727 0.0 0
M  V30 3 C 1.2436 0.7727 0.0 0
M  V30 4 C -2.6805 0.0603 0.0 0
M  V30 5 C 2.4873 0.0603 0.0 0
M  V30 6 C -4.0207 0.8452 0.0 0
M  V30 7 C 3.731 0.8452 0.0 0
M  V30 8 C 2.439 -1.3885 0.0 0
M  V30 9 C -5.361 0.1328 0.0 0
M  V30 10 C -4.069 2.3907 0.0 0
M  V30 END ATOM
M  V30 BEGIN BOND
M  V30 1 1 1 2
M  V30 2 1 1 3
M  V30 3 1 2 4
M  V30 4 1 3 5
M  V30 5 1 4 6
M  V30 6 2 5 7
M  V30 7 1 5 8
M  V30 8 2 6 9
M  V30 9 1 6 10
M  V30 END BOND
M  V30 END CTAB
M  END
>  <Molecule Name>
methyl-2-propenyl disulfide

>  <Molecule Name 2>
methyl-2-propenyl disulfide

>  <Database>
Essential Oil Database

>  <InChI>
InChI=1S/C8H14S2/c1-7(2)5-9-10-6-8(3)4/h1,3,5-6H2,2,4H3

>  <InChI-Key>
DVCDYQOQKVVSSH-UHFFFAOYSA-N

>  <Smiles>
CC(CSSCC(C)=C)=C

>  <Molecular Formula>
C8H14S2

$$$$
10,11-dihydro-2e,6e-farnesol
Actelion Java MolfileCreator 2.0

  0  0  0  0  0  0              0 V3000
M  V30 BEGIN CTAB
M  V30 COUNTS 16 15 0 0 0
M  V30 BEGIN ATOM
M  V30 1 O 0.0 0.0 0.0 0
M  V30 2 C -0.0496 1.5884 0.0 0
M  V30 3 C 1.2285 2.3951 0.0 0
M  V30 4 C 2.5067 1.6629 0.0 0
M  V30 5 C 3.785 2.4695 0.0 0
M  V30 6 C 2.4571 0.1737 0.0 0
M  V30 7 C 5.0632 1.7373 0.0 0
M  V30 8 C 6.3414 2.544 0.0 0
M  V30 9 C 7.6196 1.8118 0.0 0
M  V30 10 C 8.8978 2.6184 0.0 0
M  V30 11 C 7.57 0.3226 0.0 0
M  V30 12 C 10.176 1.8862 0.0 0
M  V30 13 C 11.4542 2.7053 0.0 0
M  V30 14 C 12.7325 1.9731 0.0 0
M  V30 15 C 14.0107 2.7798 0.0 0
M  V30 16 C 12.6828 0.4839 0.0 0
M  V30 END ATOM
M  V30 BEGIN BOND
M  V30 1 1 1 2
M  V30 2 1 2 3
M  V30 3 2 3 4
M  V30 4 1 4 5
M  V30 5 1 4 6
M  V30 6 1 5 7
M  V30 7 1 7 8
M  V30 8 2 8 9
M  V30 9 1 9 10
M  V30 10 1 9 11
M  V30 11 1 10 12
M  V30 12 1 12 13
M  V30 13 1 13 14
M  V30 14 1 14 15
M  V30 15 1 14 16
M  V30 END BOND
M  V30 END CTAB
M  END
>  <Molecule Name>
10,11-dihydro-2e,6e-farnesol

>  <Molecule Name 2>
10,11-dihydro-2e,6e-farnesol

>  <Database>
Essential Oil Database

>  <InChI>
InChI=1S/C15H28O/c1-13(2)7-5-8-14(3)9-6-10-15(4)11-12-16/h9,11,13,16H,5-8,10,12H2,1-4H3/b14-9+,15-11+

>  <InChI-Key>
MLNZDKSOEQLQOL-YFVJMOTDSA-N

>  <Smiles>
CC(C)CCC/C(\C)=C/CC/C(\C)=C/CO

>  <Molecular Formula>
C15H28O

$$$$
2,2-dimethylpropanoic acid
Actelion Java MolfileCreator 2.0

  0  0  0  0  0  0              0 V3000
M  V30 BEGIN CTAB
M  V30 COUNTS 7 6 0 0 0
M  V30 BEGIN ATOM
M  V30 1 O 0.0 0.0 0.0 0
M  V30 2 C -1.3461 -0.7155 0.0 0
M  V30 3 O -2.6923 0.0606 0.0 0
M  V30 4 C -1.3946 -2.1708 0.0 0
M  V30 5 C -1.4432 -3.6262 0.0 0
M  V30 6 C 0.0606 -2.1223 0.0 0
M  V30 7 C -2.947 -2.1223 0.0 0
M  V30 END ATOM
M  V30 BEGIN BOND
M  V30 1 2 1 2
M  V30 2 1 2 3
M  V30 3 1 2 4
M  V30 4 1 4 5
M  V30 5 1 4 6
M  V30 6 1 4 7
M  V30 END BOND
M  V30 END CTAB
M  END
>  <Molecule Name>
2,2-dimethylpropanoic acid

>  <Molecule Name 2>
2,2-dimethylpropanoic acid

>  <Database>
Essential Oil Database

>  <InChI>
InChI=1S/C5H10O2/c1-5(2,3)4(6)7/h1-3H3,(H,6,7)

>  <InChI-Key>
IUGYQRQAERSCNH-UHFFFAOYSA-N

>  <Smiles>
CC(C)(C)C(O)=O

>  <Molecular Formula>
C5H10O2

$$$$
2,6,10,14-tetramethylhexadecane
Actelion Java MolfileCreator 2.0

  0  0  0  0  0  0              0 V3000
M  V30 BEGIN CTAB
M  V30 COUNTS 20 19 0 0 0
M  V30 BEGIN ATOM
M  V30 1 C 0.0 0.0 0.0 0
M  V30 2 C -1.3346 -0.7093 0.0 0
M  V30 3 C 1.2384 -0.7093 0.0 0
M  V30 4 C -0.048 1.539 0.0 0
M  V30 5 C -2.6692 0.0601 0.0 0
M  V30 6 C 2.4768 0.0601 0.0 0
M  V30 7 C -4.0038 -0.6372 0.0 0
M  V30 8 C 3.7152 -0.6372 0.0 0
M  V30 9 C -5.3384 0.1322 0.0 0
M  V30 10 C 4.9537 0.1322 0.0 0
M  V30 11 C -6.673 -0.5651 0.0 0
M  V30 12 C -5.3865 1.6712 0.0 0
M  V30 13 C 6.1921 -0.5651 0.0 0
M  V30 14 C 4.9056 1.6712 0.0 0
M  V30 15 C -8.0077 0.2044 0.0 0
M  V30 16 C 7.4305 0.2044 0.0 0
M  V30 17 C -9.3423 -0.4929 0.0 0
M  V30 18 C -10.6769 0.2765 0.0 0
M  V30 19 C -12.0115 -0.4208 0.0 0
M  V30 20 C -10.725 1.8155 0.0 0
M  V30 END ATOM
M  V30 BEGIN BOND
M  V30 1 1 1 2
M  V30 2 1 1 3
M  V30 3 1 1 4
M  V30 4 1 2 5
M  V30 5 1 3 6
M  V30 6 1 5 7
M  V30 7 1 6 8
M  V30 8 1 7 9
M  V30 9 1 8 10
M  V30 10 1 9 11
M  V30 11 1 9 12
M  V30 12 1 10 13
M  V30 13 1 10 14
M  V30 14 1 11 15
M  V30 15 1 13 16
M  V30 16 1 15 17
M  V30 17 1 17 18
M  V30 18 1 18 19
M  V30 19 1 18 20
M  V30 END BOND
M  V30 END CTAB
M  END
>  <Molecule Name>
2,6,10,14-tetramethylhexadecane

>  <Molecule Name 2>
2,6,10,14-tetramethylhexadecane

>  <Database>
Essential Oil Database

>  <InChI>
InChI=1S/C20H42/c1-7-18(4)12-9-14-20(6)16-10-15-19(5)13-8-11-17(2)3/h17-20H,7-16H2,1-6H3

>  <InChI-Key>
GGYKPYDKXLHNTI-UHFFFAOYSA-N

>  <Smiles>
CCC(C)CCCC(C)CCCC(C)CCCC(C)C

>  <Molecular Formula>
C20H42

$$$$
2,6,10,14-tetramethylpentadecane
Actelion Java MolfileCreator 2.0

  0  0  0  0  0  0              0 V3000
M  V30 BEGIN CTAB
M  V30 COUNTS 19 18 0 0 0
M  V30 BEGIN ATOM
M  V30 1 C 0.0 0.0 0.0 0
M  V30 2 C 1.2647 0.8122 0.0 0
M  V30 3 C -1.3575 0.8122 0.0 0
M  V30 4 C -0.0464 -1.462 0.0 0
M  V30 5 C 2.5295 0.0812 0.0 0
M  V30 6 C -2.7151 0.0812 0.0 0
M  V30 7 C 3.7942 0.8934 0.0 0
M  V30 8 C -4.0727 0.8934 0.0 0
M  V30 9 C 5.059 0.1856 0.0 0
M  V30 10 C -5.4303 0.1856 0.0 0
M  V30 11 C 6.3237 0.9978 0.0 0
M  V30 12 C 5.0126 -1.2763 0.0 0
M  V30 13 C -6.7879 0.9978 0.0 0
M  V30 14 C -5.4767 -1.2763 0.0 0
M  V30 15 C 7.5885 0.29 0.0 0
M  V30 16 C 8.8533 1.1023 0.0 0
M  V30 17 C 10.118 0.3829 0.0 0
M  V30 18 C 11.3828 1.1951 0.0 0
M  V30 19 C 10.0716 -1.0791 0.0 0
M  V30 END ATOM
M  V30 BEGIN BOND
M  V30 1 1 1 2
M  V30 2 1 1 3
M  V30 3 1 1 4
M  V30 4 1 2 5
M  V30 5 1 3 6
M  V30 6 1 5 7
M  V30 7 1 6 8
M  V30 8 1 7 9
M  V30 9 1 8 10
M  V30 10 1 9 11
M  V30 11 1 9 12
M  V30 12 1 10 13
M  V30 13 1 10 14
M  V30 14 1 11 15
M  V30 15 1 15 16
M  V30 16 1 16 17
M  V30 17 1 17 18
M  V30 18 1 17 19
M  V30 END BOND
M  V30 END CTAB
M  END
>  <Molecule Name>
2,6,10,14-tetramethylpentadecane

>  <Molecule Name 2>
2,6,10,14-tetramethylpentadecane

>  <Database>
Essential Oil Database

>  <InChI>
InChI=1S/C19H40/c1-16(2)10-7-12-18(5)14-9-15-19(6)13-8-11-17(3)4/h16-19H,7-15H2,1-6H3

>  <InChI-Key>
XOJVVFBFDXDTEG-UHFFFAOYSA-N

>  <Smiles>
CC(C)CCCC(C)CCCC(C)CCCC(C)C

>  <Molecular Formula>
C19H40

$$$$
2,6-dimethylcyclohexanol
Actelion Java MolfileCreator 2.0

  0  0  0  0  0  0              0 V3000
M  V30 BEGIN CTAB
M  V30 COUNTS 9 9 0 0 0
M  V30 BEGIN ATOM
M  V30 1 O 0.0 0.0 0.0 0
M  V30 2 C -0.0467 -1.4739 0.0 0
M  V30 3 C 1.2283 -2.1641 0.0 0
M  V30 4 C -1.4154 -2.1641 0.0 0
M  V30 5 C 1.1815 -3.6381 0.0 0
M  V30 6 C 2.5034 -1.3452 0.0 0
M  V30 7 C -1.4622 -3.6381 0.0 0
M  V30 8 C -2.7841 -1.3452 0.0 0
M  V30 9 C -0.1871 -4.3283 0.0 0
M  V30 END ATOM
M  V30 BEGIN BOND
M  V30 1 1 1 2
M  V30 2 1 2 3
M  V30 3 1 2 4
M  V30 4 1 3 5
M  V30 5 1 3 6
M  V30 6 1 4 7
M  V30 7 1 4 8
M  V30 8 1 5 9
M  V30 9 1 7 9
M  V30 END BOND
M  V30 END CTAB
M  END
>  <Molecule Name>
2,6-dimethylcyclohexanol

>  <Molecule Name 2>
2,6-dimethylcyclohexanol

>  <Database>
Essential Oil Database

>  <InChI>
InChI=1S/C8H16O/c1-6-4-3-5-7(2)8(6)9/h6-9H,3-5H2,1-2H3

>  <InChI-Key>
MOISVRZIQDQVPF-UHFFFAOYSA-N

>  <Smiles>
CC(CCCC1C)C1O

>  <Molecular Formula>
C8H16O

$$$$
2-methylhexadecane
Actelion Java MolfileCreator 2.0

  0  0  0  0  0  0              0 V3000
M  V30 BEGIN CTAB
M  V30 COUNTS 17 16 0 0 0
M  V30 BEGIN ATOM
M  V30 1 C 0.0 0.0 0.0 0
M  V30 2 C 1.2784 -0.7323 0.0 0
M  V30 3 C -1.3777 -0.7323 0.0 0
M  V30 4 C -0.0496 1.5888 0.0 0
M  V30 5 C 2.5569 0.062 0.0 0
M  V30 6 C 3.8354 -0.6702 0.0 0
M  V30 7 C 5.1139 0.1241 0.0 0
M  V30 8 C 6.3924 -0.6082 0.0 0
M  V30 9 C 7.6709 0.1861 0.0 0
M  V30 10 C 8.9494 -0.5461 0.0 0
M  V30 11 C 10.2279 0.2482 0.0 0
M  V30 12 C 11.5064 -0.484 0.0 0
M  V30 13 C 12.7849 0.3103 0.0 0
M  V30 14 C 14.0634 -0.422 0.0 0
M  V30 15 C 15.3419 0.3723 0.0 0
M  V30 16 C 16.6204 -0.3599 0.0 0
M  V30 17 C 17.8988 0.4344 0.0 0
M  V30 END ATOM
M  V30 BEGIN BOND
M  V30 1 1 1 2
M  V30 2 1 1 3
M  V30 3 1 1 4
M  V30 4 1 2 5
M  V30 5 1 5 6
M  V30 6 1 6 7
M  V30 7 1 7 8
M  V30 8 1 8 9
M  V30 9 1 9 10
M  V30 10 1 10 11
M  V30 11 1 11 12
M  V30 12 1 12 13
M  V30 13 1 13 14
M  V30 14 1 14 15
M  V30 15 1 15 16
M  V30 16 1 16 17
M  V30 END BOND
M  V30 END CTAB
M  END
>  <Molecule Name>
2-methylhexadecane

>  <Molecule Name 2>
2-methylhexadecane

>  <Database>
Essential Oil Database

>  <InChI>
InChI=1S/C17H36/c1-4-5-6-7-8-9-10-11-12-13-14-15-16-17(2)3/h17H,4-16H2,1-3H3

>  <InChI-Key>
FNWWOHKUXFTKGN-UHFFFAOYSA-N

>  <Smiles>
CCCCCCCCCCCCCCC(C)C

>  <Molecular Formula>
C17H36

$$$$
acetaldehyde
Actelion Java MolfileCreator 2.0

  0  0  0  0  0  0              0 V3000
M  V30 BEGIN CTAB
M  V30 COUNTS 3 2 0 0 0
M  V30 BEGIN ATOM
M  V30 1 O 0.0 0.0 0.0 0
M  V30 2 C -1.3156 -0.6783 0.0 0
M  V30 3 C -2.6313 0.0822 0.0 0
M  V30 END ATOM
M  V30 BEGIN BOND
M  V30 1 2 1 2
M  V30 2 1 2 3
M  V30 END BOND
M  V30 END CTAB
M  END
>  <Molecule Name>
acetaldehyde

>  <Molecule Name 2>
acetaldehyde

>  <Database>
Essential Oil Database

>  <InChI>
InChI=1S/C2H4O/c1-2-3/h2H,1H3

>  <InChI-Key>
IKHGUXGNUITLKF-UHFFFAOYSA-N

>  <Smiles>
CC=O

>  <Molecular Formula>
C2H4O

$$$$
aldehydes
Actelion Java MolfileCreator 2.0

  0  0  0  0  0  0              0 V3000
M  V30 BEGIN CTAB
M  V30 COUNTS 3 2 0 0 0
M  V30 BEGIN ATOM
M  V30 1 O 0.0 0.0 0.0 0
M  V30 2 C -1.3156 -0.6783 0.0 0
M  V30 3 ? -2.6313 0.0822 0.0 0
M  V30 END ATOM
M  V30 BEGIN BOND
M  V30 1 2 1 2
M  V30 2 1 2 3
M  V30 END BOND
M  V30 END CTAB
M  END
>  <Molecule Name>
aldehydes

>  <Molecule Name 2>
aldehydes

>  <Database>
Essential Oil Database

>  <InChI>
Invalid element(s): Zz; Polymer-unrelated pseudoatoms are not allowed

>  <InChI-Key>
Invalid element(s): Zz; Polymer-unrelated pseudoatoms are not allowed

>  <Smiles>
[?]C=O

>  <Molecular Formula>
CHO

$$$$
benzoic acid
Actelion Java MolfileCreator 2.0

  0  0  0  0  0  0              0 V3000
M  V30 BEGIN CTAB
M  V30 COUNTS 9 9 0 0 0
M  V30 BEGIN ATOM
M  V30 1 O 0.0 0.0 0.0 0
M  V30 2 C -1.3675 -0.6896 0.0 0
M  V30 3 O -2.735 0.1168 0.0 0
M  V30 4 C -1.4142 -2.1623 0.0 0
M  V30 5 C -0.1402 -2.8519 0.0 0
M  V30 6 C -2.7817 -2.8519 0.0 0
M  V30 7 C -0.187 -4.3246 0.0 0
M  V30 8 C -2.8285 -4.3246 0.0 0
M  V30 9 C -1.5545 -5.0142 0.0 0
M  V30 END ATOM
M  V30 BEGIN BOND
M  V30 1 2 1 2
M  V30 2 1 2 3
M  V30 3 1 2 4
M  V30 4 2 4 5
M  V30 5 1 4 6
M  V30 6 1 5 7
M  V30 7 2 6 8
M  V30 8 2 7 9
M  V30 9 1 8 9
M  V30 END BOND
M  V30 END CTAB
M  END
>  <Molecule Name>
benzoic acid

>  <Molecule Name 2>
benzoic acid

>  <Database>
Essential Oil Database

>  <InChI>
InChI=1S/C7H6O2/c8-7(9)6-4-2-1-3-5-6/h1-5H,(H,8,9)

>  <InChI-Key>
WPYMKLBDIGXBTP-UHFFFAOYSA-N

>  <Smiles>
OC(c1ccccc1)=O

>  <Molecular Formula>
C7H6O2

$$$$
cyanophenol
Actelion Java MolfileCreator 2.0

  0  0  0  0  0  0              0 V3000
M  V30 BEGIN CTAB
M  V30 COUNTS 9 9 0 0 0
M  V30 BEGIN ATOM
M  V30 1 O 0.0 0.0 0.0 0
M  V30 2 C -0.0473 -1.4917 0.0 0
M  V30 3 C 1.2431 -2.1902 0.0 0
M  V30 4 C -1.4325 -2.1902 0.0 0
M  V30 5 C 1.1957 -3.682 0.0 0
M  V30 6 C -1.4799 -3.682 0.0 0
M  V30 7 C -0.1894 -4.3805 0.0 0
M  V30 8 C -0.2367 -5.8722 0.0 0
M  V30 9 N -0.2841 -7.364 0.0 0
M  V30 END ATOM
M  V30 BEGIN BOND
M  V30 1 1 1 2
M  V30 2 2 2 3
M  V30 3 1 2 4
M  V30 4 1 3 5
M  V30 5 2 4 6
M  V30 6 2 5 7
M  V30 7 1 7 8
M  V30 8 3 8 9
M  V30 9 1 6 7
M  V30 END BOND
M  V30 END CTAB
M  END
>  <Molecule Name>
cyanophenol

>  <Molecule Name 2>
cyanophenol

>  <Database>
Essential Oil Database

>  <InChI>
InChI=1S/C7H5NO/c8-5-6-1-3-7(9)4-2-6/h1-4,9H

>  <InChI-Key>
CVNOWLNNPYYEOH-UHFFFAOYSA-N

>  <Smiles>
N#Cc(cc1)ccc1O

>  <Molecular Formula>
C7H5NO

$$$$
decylbenzene
Actelion Java MolfileCreator 2.0

  0  0  0  0  0  0              0 V3000
M  V30 BEGIN CTAB
M  V30 COUNTS 16 16 0 0 0
M  V30 BEGIN ATOM
M  V30 1 C 0.0 0.0 0.0 0
M  V30 2 C -1.356 -0.7207 0.0 0
M  V30 3 C -0.0488 1.5636 0.0 0
M  V30 4 C 1.2582 -0.7207 0.0 0
M  V30 5 C -2.712 0.061 0.0 0
M  V30 6 C -1.4048 2.3577 0.0 0
M  V30 7 C 2.5165 0.061 0.0 0
M  V30 8 C -2.7608 1.6247 0.0 0
M  V30 9 C 3.7748 -0.6596 0.0 0
M  V30 10 C 5.033 0.1221 0.0 0
M  V30 11 C 6.2913 -0.5985 0.0 0
M  V30 12 C 7.5496 0.1832 0.0 0
M  V30 13 C 8.8079 -0.5375 0.0 0
M  V30 14 C 10.0661 0.2443 0.0 0
M  V30 15 C 11.3244 -0.4764 0.0 0
M  V30 16 C 12.5827 0.3054 0.0 0
M  V30 END ATOM
M  V30 BEGIN BOND
M  V30 1 2 1 2
M  V30 2 1 1 3
M  V30 3 1 1 4
M  V30 4 1 2 5
M  V30 5 2 3 6
M  V30 6 1 4 7
M  V30 7 2 5 8
M  V30 8 1 7 9
M  V30 9 1 9 10
M  V30 10 1 10 11
M  V30 11 1 11 12
M  V30 12 1 12 13
M  V30 13 1 13 14
M  V30 14 1 14 15
M  V30 15 1 15 16
M  V30 16 1 6 8
M  V30 END BOND
M  V30 END CTAB
M  END
>  <Molecule Name>
decylbenzene

>  <Molecule Name 2>
decylbenzene

>  <Database>
Essential Oil Database

>  <InChI>
InChI=1S/C16H26/c1-2-3-4-5-6-7-8-10-13-16-14-11-9-12-15-16/h9,11-12,14-15H,2-8,10,13H2,1H3

>  <InChI-Key>
UZILCZKGXMQEQR-UHFFFAOYSA-N

>  <Smiles>
CCCCCCCCCCc1ccccc1

>  <Molecular Formula>
C16H26

$$$$
dihydroactinidiolide
Actelion Java MolfileCreator 2.0

  0  0  0  0  0  0              0 V3000
M  V30 BEGIN CTAB
M  V30 COUNTS 13 14 0 0 0
M  V30 BEGIN ATOM
M  V30 1 O 0.0 0.0 0.0 0
M  V30 2 C 1.4814 0.0489 0.0 0
M  V30 3 O 2.3261 1.3345 0.0 0
M  V30 4 C 2.3261 -1.1386 0.0 0
M  V30 5 C 3.7341 0.9059 0.0 0 CFG=1
M  V30 6 C 3.7341 -0.6121 0.0 0
M  V30 7 C 5.0074 1.714 0.0 0
M  V30 8 C 3.526 2.4731 0.0 0
M  V30 9 C 5.0074 -1.3467 0.0 0
M  V30 10 C 6.2807 0.9916 0.0 0
M  V30 11 C 6.2807 -0.5386 0.0 0
M  V30 12 C 5.9379 -2.4608 0.0 0
M  V30 13 C 3.979 -2.4608 0.0 0
M  V30 END ATOM
M  V30 BEGIN BOND
M  V30 1 2 1 2
M  V30 2 1 2 3
M  V30 3 1 2 4
M  V30 4 1 3 5
M  V30 5 2 4 6
M  V30 6 1 5 7
M  V30 7 1 5 8 CFG=1
M  V30 8 1 6 9
M  V30 9 1 7 10
M  V30 10 1 9 11
M  V30 11 1 9 12
M  V30 12 1 9 13
M  V30 13 1 5 6
M  V30 14 1 10 11
M  V30 END BOND
M  V30 BEGIN COLLECTION
M  V30 MDLV30/STEABS ATOMS=(1 5)
M  V30 END COLLECTION
M  V30 END CTAB
M  END
>  <Molecule Name>
dihydroactinidiolide

>  <Molecule Name 2>
dihydroactinidiolide

>  <Database>
Essential Oil Database

>  <InChI>
InChI=1S/C11H16O2/c1-10(2)5-4-6-11(3)8(10)7-9(12)13-11/h7H,4-6H2,1-3H3/t11-/m1/s1

>  <InChI-Key>
IMKHDCBNRDRUEB-LLVKDONJSA-N

>  <Smiles>
C[C@@](CCCC1(C)C)(C1=C1)OC1=O

>  <Molecular Formula>
C11H16O2

$$$$
formamide
Actelion Java MolfileCreator 2.0

  0  0  0  0  0  0              0 V3000
M  V30 BEGIN CTAB
M  V30 COUNTS 3 2 0 0 0
M  V30 BEGIN ATOM
M  V30 1 O 0.0 0.0 0.0 0
M  V30 2 C 1.284 -0.7337 0.0 0
M  V30 3 N 2.5681 0.0815 0.0 0
M  V30 END ATOM
M  V30 BEGIN BOND
M  V30 1 2 1 2
M  V30 2 1 2 3
M  V30 END BOND
M  V30 END CTAB
M  END
>  <Molecule Name>
formamide

>  <Molecule Name 2>
formamide

>  <Database>
Essential Oil Database

>  <InChI>
InChI=1S/CH3NO/c2-1-3/h1H,(H2,2,3)

>  <InChI-Key>
ZHNUHDYFZUAESO-UHFFFAOYSA-N

>  <Smiles>
NC=O

>  <Molecular Formula>
CH3NO

$$$$
n-methyl-n-phenylformamide
Actelion Java MolfileCreator 2.0

  0  0  0  0  0  0              0 V3000
M  V30 BEGIN CTAB
M  V30 COUNTS 10 10 0 0 0
M  V30 BEGIN ATOM
M  V30 1 O 0.0 0.0 0.0 0
M  V30 2 C -0.0473 -1.4908 0.0 0
M  V30 3 N 1.2424 -2.189 0.0 0
M  V30 4 C 1.195 -3.6799 0.0 0
M  V30 5 C 2.5321 -1.3607 0.0 0
M  V30 6 C 2.4848 -4.378 0.0 0
M  V30 7 C -0.1893 -4.378 0.0 0
M  V30 8 C 2.4374 -5.8689 0.0 0
M  V30 9 C -0.2366 -5.8689 0.0 0
M  V30 10 C 1.053 -6.567 0.0 0
M  V30 END ATOM
M  V30 BEGIN BOND
M  V30 1 2 1 2
M  V30 2 1 2 3
M  V30 3 1 3 4
M  V30 4 1 3 5
M  V30 5 2 4 6
M  V30 6 1 4 7
M  V30 7 1 6 8
M  V30 8 2 7 9
M  V30 9 2 8 10
M  V30 10 1 9 10
M  V30 END BOND
M  V30 END CTAB
M  END
>  <Molecule Name>
n-methyl-n-phenylformamide

>  <Molecule Name 2>
n-methyl-n-phenylformamide

>  <Database>
Essential Oil Database

>  <InChI>
InChI=1S/C8H9NO/c1-9(7-10)8-5-3-2-4-6-8/h2-7H,1H3

>  <InChI-Key>
JIKUXBYRTXDNIY-UHFFFAOYSA-N

>  <Smiles>
CN(C=O)c1ccccc1

>  <Molecular Formula>
C8H9NO

$$$$
n,n-diphenylformamide
Actelion Java MolfileCreator 2.0

  0  0  0  0  0  0              0 V3000
M  V30 BEGIN CTAB
M  V30 COUNTS 15 16 0 0 0
M  V30 BEGIN ATOM
M  V30 1 O 0.0 0.0 0.0 0
M  V30 2 C -0.0492 -1.4779 0.0 0
M  V30 3 N 1.2193 -2.2046 0.0 0
M  V30 4 C 1.17 -3.6825 0.0 0
M  V30 5 C 2.4878 -1.404 0.0 0
M  V30 6 C 2.4386 -4.4215 0.0 0
M  V30 7 C -0.197 -4.4215 0.0 0
M  V30 8 C 2.4386 0.1724 0.0 0
M  V30 9 C 3.7564 -2.1307 0.0 0
M  V30 10 C 2.3893 -5.8994 0.0 0
M  V30 11 C -0.2463 -5.8994 0.0 0
M  V30 12 C 3.7072 0.9729 0.0 0
M  V30 13 C 5.025 -1.3301 0.0 0
M  V30 14 C 1.0222 -6.6384 0.0 0
M  V30 15 C 4.9757 0.2463 0.0 0
M  V30 END ATOM
M  V30 BEGIN BOND
M  V30 1 2 1 2
M  V30 2 1 2 3
M  V30 3 1 3 4
M  V30 4 1 3 5
M  V30 5 2 4 6
M  V30 6 1 4 7
M  V30 7 2 5 8
M  V30 8 1 5 9
M  V30 9 1 6 10
M  V30 10 2 7 11
M  V30 11 1 8 12
M  V30 12 2 9 13
M  V30 13 2 10 14
M  V30 14 2 12 15
M  V30 15 1 11 14
M  V30 16 1 13 15
M  V30 END BOND
M  V30 END CTAB
M  END
>  <Molecule Name>
n,n-diphenylformamide

>  <Molecule Name 2>
n,n-diphenylformamide

>  <Database>
Essential Oil Database

>  <InChI>
InChI=1S/C13H11NO/c15-11-14(12-7-3-1-4-8-12)13-9-5-2-6-10-13/h1-11H

>  <InChI-Key>
DCNUQRBLZWSGAV-UHFFFAOYSA-N

>  <Smiles>
O=CN(c1ccccc1)c1ccccc1

>  <Molecular Formula>
C13H11NO

$$$$
o-cresol
Actelion Java MolfileCreator 2.0

  0  0  0  0  0  0              0 V3000
M  V30 BEGIN CTAB
M  V30 COUNTS 8 8 0 0 0
M  V30 BEGIN ATOM
M  V30 1 O 0.0 0.0 0.0 0
M  V30 2 C -0.0471 -1.4857 0.0 0
M  V30 3 C 1.2381 -2.1814 0.0 0
M  V30 4 C -1.4267 -2.1814 0.0 0
M  V30 5 C 1.1909 -3.6671 0.0 0
M  V30 6 C 2.5233 -1.356 0.0 0
M  V30 7 C -1.4739 -3.6671 0.0 0
M  V30 8 C -0.1886 -4.3628 0.0 0
M  V30 END ATOM
M  V30 BEGIN BOND
M  V30 1 1 1 2
M  V30 2 2 2 3
M  V30 3 1 2 4
M  V30 4 1 3 5
M  V30 5 1 3 6
M  V30 6 2 4 7
M  V30 7 2 5 8
M  V30 8 1 7 8
M  V30 END BOND
M  V30 END CTAB
M  END
>  <Molecule Name>
o-cresol

>  <Molecule Name 2>
o-cresol

>  <Database>
Essential Oil Database

>  <InChI>
InChI=1S/C7H8O/c1-6-4-2-3-5-7(6)8/h2-5,8H,1H3

>  <InChI-Key>
QWVGKYWNOKOFNN-UHFFFAOYSA-N

>  <Smiles>
Cc(cccc1)c1O

>  <Molecular Formula>
C7H8O

$$$$
phenanthrene
Actelion Java MolfileCreator 2.0

  0  0  0  0  0  0              0 V3000
M  V30 BEGIN CTAB
M  V30 COUNTS 14 16 0 0 0
M  V30 BEGIN ATOM
M  V30 1 C 0.0 0.0 0.0 0
M  V30 2 C -1.5495 0.0484 0.0 0
M  V30 3 C 0.7142 -1.2469 0.0 0
M  V30 4 C 0.7142 1.3437 0.0 0
M  V30 5 C -2.3364 -1.1985 0.0 0
M  V30 6 C -2.3364 1.3922 0.0 0
M  V30 7 C -0.0605 -2.4938 0.0 0
M  V30 8 C 2.167 -1.1985 0.0 0
M  V30 9 C 2.167 1.3922 0.0 0
M  V30 10 C -1.6101 -2.4454 0.0 0
M  V30 11 C -3.886 -1.15 0.0 0
M  V30 12 C -3.886 1.4406 0.0 0
M  V30 13 C 2.8933 0.1452 0.0 0
M  V30 14 C -4.6608 0.1936 0.0 0
M  V30 END ATOM
M  V30 BEGIN BOND
M  V30 1 2 1 2
M  V30 2 1 1 3
M  V30 3 1 1 4
M  V30 4 1 2 5
M  V30 5 1 2 6
M  V30 6 2 3 7
M  V30 7 1 3 8
M  V30 8 2 4 9
M  V30 9 2 5 10
M  V30 10 1 5 11
M  V30 11 2 6 12
M  V30 12 2 8 13
M  V30 13 2 11 14
M  V30 14 1 7 10
M  V30 15 1 9 13
M  V30 16 1 12 14
M  V30 END BOND
M  V30 END CTAB
M  END
>  <Molecule Name>
phenanthrene

>  <Molecule Name 2>
phenanthrene

>  <Database>
Essential Oil Database

>  <InChI>
InChI=1S/C14H10/c1-3-7-13-11(5-1)9-10-12-6-2-4-8-14(12)13/h1-10H

>  <InChI-Key>
YNPNZTXNASCQKK-UHFFFAOYSA-N

>  <Smiles>
c1cc2ccc(cccc3)c3c2cc1

>  <Molecular Formula>
C14H10

$$$$
phenol
Actelion Java MolfileCreator 2.0

  0  0  0  0  0  0              0 V3000
M  V30 BEGIN CTAB
M  V30 COUNTS 7 7 0 0 0
M  V30 BEGIN ATOM
M  V30 1 O 0.0 0.0 0.0 0
M  V30 2 C -0.0472 -1.4896 0.0 0
M  V30 3 C 1.2413 -2.1871 0.0 0
M  V30 4 C -1.4305 -2.1871 0.0 0
M  V30 5 C 1.194 -3.6767 0.0 0
M  V30 6 C -1.4777 -3.6767 0.0 0
M  V30 7 C -0.1891 -4.3742 0.0 0
M  V30 END ATOM
M  V30 BEGIN BOND
M  V30 1 1 1 2
M  V30 2 2 2 3
M  V30 3 1 2 4
M  V30 4 1 3 5
M  V30 5 2 4 6
M  V30 6 2 5 7
M  V30 7 1 6 7
M  V30 END BOND
M  V30 END CTAB
M  END
>  <Molecule Name>
phenol

>  <Molecule Name 2>
phenol

>  <Database>
Essential Oil Database

>  <InChI>
InChI=1S/C6H6O/c7-6-4-2-1-3-5-6/h1-5,7H

>  <InChI-Key>
ISWSIDIOOBJBQZ-UHFFFAOYSA-N

>  <Smiles>
Oc1ccccc1

>  <Molecular Formula>
C6H6O

$$$$
bisabolol
Actelion Java MolfileCreator 2.0

  0  0  0  0  0  0              0 V3000
M  V30 BEGIN CTAB
M  V30 COUNTS 16 16 0 0 0
M  V30 BEGIN ATOM
M  V30 1 O 0.0 0.0 0.0 0
M  V30 2 C -1.553 0.0485 0.0 0 CFG=2
M  V30 3 C -1.6016 -1.4074 0.0 0 CFG=2
M  V30 4 C -1.6016 1.6016 0.0 0
M  V30 5 C -3.1061 0.097 0.0 0
M  V30 6 C -2.9484 -2.1233 0.0 0
M  V30 7 C -0.3518 -2.1233 0.0 0
M  V30 8 C -2.9484 2.3781 0.0 0
M  V30 9 C -2.9969 -3.5793 0.0 0
M  V30 10 C -0.4004 -3.5793 0.0 0
M  V30 11 C -2.9969 3.9312 0.0 0
M  V30 12 C -1.7472 -4.2952 0.0 0
M  V30 13 C -1.7472 4.7198 0.0 0
M  V30 14 C -1.7957 -5.7512 0.0 0
M  V30 15 C -1.7957 6.2729 0.0 0
M  V30 16 C -0.4974 4.004 0.0 0
M  V30 END ATOM
M  V30 BEGIN BOND
M  V30 1 1 1 2
M  V30 2 1 2 3 CFG=3
M  V30 3 1 2 4
M  V30 4 1 2 5
M  V30 5 1 3 6 CFG=1
M  V30 6 1 3 7
M  V30 7 1 4 8
M  V30 8 1 6 9
M  V30 9 1 7 10
M  V30 10 1 8 11
M  V30 11 2 9 12
M  V30 12 2 11 13
M  V30 13 1 12 14
M  V30 14 1 13 15
M  V30 15 1 13 16
M  V30 16 1 10 12
M  V30 END BOND
M  V30 BEGIN COLLECTION
M  V30 MDLV30/STEABS ATOMS=(2 2 3)
M  V30 END COLLECTION
M  V30 END CTAB
M  END
>  <Molecule Name>
bisabolol

>  <Molecule Name 2>
bisabolol

>  <Database>
Essential Oil Database

>  <InChI>
InChI=1S/C15H26O/c1-12(2)6-5-11-15(4,16)14-9-7-13(3)8-10-14/h6-7,14,16H,5,8-11H2,1-4H3/t14-,15+/m1/s1

>  <InChI-Key>
RGZSQWQPBWRIAQ-CABCVRRESA-N

>  <Smiles>
C[C@](CCC=C(C)C)([C@@H]1CC=C(C)CC1)O

>  <Molecular Formula>
C15H26O

$$$$
isoamyl octanoate
Actelion Java MolfileCreator 2.0

  0  0  0  0  0  0              0 V3000
M  V30 BEGIN CTAB
M  V30 COUNTS 15 14 0 0 0
M  V30 BEGIN ATOM
M  V30 1 O 0.0 0.0 0.0 0
M  V30 2 C -0.0481 1.5411 0.0 0
M  V30 3 O 1.192 2.3238 0.0 0
M  V30 4 C -1.3846 2.3238 0.0 0
M  V30 5 C 2.4321 1.6134 0.0 0
M  V30 6 C -2.7211 1.6134 0.0 0
M  V30 7 C 3.6723 2.396 0.0 0
M  V30 8 C -4.0576 2.396 0.0 0
M  V30 9 C 4.9125 1.6856 0.0 0
M  V30 10 C -5.3941 1.6856 0.0 0
M  V30 11 C 6.1526 2.4803 0.0 0
M  V30 12 C 4.8643 0.2408 0.0 0
M  V30 13 C -6.7306 2.4803 0.0 0
M  V30 14 C -8.0671 1.7699 0.0 0
M  V30 15 C -9.4036 2.5646 0.0 0
M  V30 END ATOM
M  V30 BEGIN BOND
M  V30 1 2 1 2
M  V30 2 1 2 3
M  V30 3 1 2 4
M  V30 4 1 3 5
M  V30 5 1 4 6
M  V30 6 1 5 7
M  V30 7 1 6 8
M  V30 8 1 7 9
M  V30 9 1 8 10
M  V30 10 1 9 11
M  V30 11 1 9 12
M  V30 12 1 10 13
M  V30 13 1 13 14
M  V30 14 1 14 15
M  V30 END BOND
M  V30 END CTAB
M  END
>  <Molecule Name>
isoamyl octanoate

>  <Molecule Name 2>
isoamyl octanoate

>  <Database>
Essential Oil Database

>  <InChI>
InChI=1S/C13H26O2/c1-4-5-6-7-8-9-13(14)15-11-10-12(2)3/h12H,4-11H2,1-3H3

>  <InChI-Key>
XKWSWANXMRXDES-UHFFFAOYSA-N

>  <Smiles>
CCCCCCCC(OCCC(C)C)=O

>  <Molecular Formula>
C13H26O2

$$$$
(z)-2-hexenylisovalerate
Actelion Java MolfileCreator 2.0

  0  0  0  0  0  0              0 V3000
M  V30 BEGIN CTAB
M  V30 COUNTS 13 12 0 0 0
M  V30 BEGIN ATOM
M  V30 1 O 0.0 0.0 0.0 0
M  V30 2 C -0.769 -1.2376 0.0 0
M  V30 3 O -0.06 -2.4753 0.0 0 CHG=-1
M  V30 4 C -2.3071 -1.1896 0.0 0 CFG=2
M  V30 5 C -3.0882 0.1441 0.0 0
M  V30 6 C -3.0882 -2.4273 0.0 0
M  V30 7 C -4.6263 0.1922 0.0 0
M  V30 8 C -4.6263 -2.3792 0.0 0
M  V30 9 C -2.3792 -3.665 0.0 0
M  V30 10 C -5.4073 -1.0454 0.0 0
M  V30 11 C -6.9455 -0.9973 0.0 0
M  V30 12 C -7.7265 0.3364 0.0 0
M  V30 13 C -7.0055 1.6702 0.0 0
M  V30 END ATOM
M  V30 BEGIN BOND
M  V30 1 2 1 2
M  V30 2 1 2 3
M  V30 3 1 2 4
M  V30 4 1 4 5 CFG=1
M  V30 5 1 4 6
M  V30 6 2 5 7
M  V30 7 1 6 8
M  V30 8 1 6 9
M  V30 9 1 7 10
M  V30 10 1 10 11
M  V30 11 1 11 12
M  V30 12 1 12 13
M  V30 END BOND
M  V30 BEGIN COLLECTION
M  V30 MDLV30/STERAC1 ATOMS=(1 4)
M  V30 END COLLECTION
M  V30 END CTAB
M  END
>  <Molecule Name>
(z)-2-hexenylisovalerate

>  <Molecule Name 2>
(z)-2-hexenylisovalerate

>  <Database>
Essential Oil Database

>  <InChI>
InChI=1S/C11H20O2/c1-4-5-6-7-8-10(9(2)3)11(12)13/h7-10H,4-6H2,1-3H3,(H,12,13)/p-1/b8-7-/t10-/m1/s1

>  <InChI-Key>
PTJBNLTVUSFNOA-GQYWMQPJSA-M

>  <Smiles>
CCCC/C=C\C(C(C)C)C([O-])=O

>  <Molecular Formula>
C11H19O2

$$$$
(z)-3-hexenyl-2-methylbutyrate
Actelion Java MolfileCreator 2.0

  0  0  0  0  0  0              0 V3000
M  V30 BEGIN CTAB
M  V30 COUNTS 13 12 0 0 0
M  V30 BEGIN ATOM
M  V30 1 O 0.0 0.0 0.0 0
M  V30 2 C -1.5354 0.0479 0.0 0
M  V30 3 O -2.3151 -1.1875 0.0 0 CHG=-1
M  V30 4 C -2.3151 1.3794 0.0 0
M  V30 5 C -3.8505 1.4274 0.0 0
M  V30 6 C -1.6073 2.7109 0.0 0
M  V30 7 C -4.6302 2.7589 0.0 0
M  V30 8 C -4.6302 0.1919 0.0 0
M  V30 9 C -6.1656 2.8069 0.0 0
M  V30 10 C -6.9333 1.5714 0.0 0
M  V30 11 C -6.2256 0.3358 0.0 0
M  V30 12 C -7.0053 -0.8996 0.0 0
M  V30 13 C -8.5407 -0.8516 0.0 0
M  V30 END ATOM
M  V30 BEGIN BOND
M  V30 1 2 1 2
M  V30 2 1 2 3
M  V30 3 1 2 4
M  V30 4 1 4 5
M  V30 5 1 4 6
M  V30 6 1 5 7
M  V30 7 1 5 8
M  V30 8 2 7 9
M  V30 9 1 9 10
M  V30 10 1 10 11
M  V30 11 1 11 12
M  V30 12 1 12 13
M  V30 END BOND
M  V30 END CTAB
M  END
>  <Molecule Name>
(z)-3-hexenyl-2-methylbutyrate

>  <Molecule Name 2>
(z)-3-hexenyl-2-methylbutyrate

>  <Database>
Essential Oil Database

>  <InChI>
InChI=1S/C11H20O2/c1-4-5-6-7-8-9(2)10(3)11(12)13/h7-10H,4-6H2,1-3H3,(H,12,13)/p-1/b8-7-

>  <InChI-Key>
ZAHLYNYJUJNNSR-FPLPWBNLSA-M

>  <Smiles>
CCCC/C=C\C(C)C(C)C([O-])=O

>  <Molecular Formula>
C11H19O2

$$$$
methyl tetradecanoate
Actelion Java MolfileCreator 2.0

  0  0  0  0  0  0              0 V3000
M  V30 BEGIN CTAB
M  V30 COUNTS 17 16 0 0 0
M  V30 BEGIN ATOM
M  V30 1 O 0.0 0.0 0.0 0
M  V30 2 C -0.0453 -1.4298 0.0 0
M  V30 3 O 1.1915 -2.0994 0.0 0
M  V30 4 C -1.3731 -2.0994 0.0 0
M  V30 5 C 2.4285 -1.305 0.0 0
M  V30 6 C -2.7009 -1.305 0.0 0
M  V30 7 C -4.0286 -1.9746 0.0 0
M  V30 8 C -5.3564 -1.1802 0.0 0
M  V30 9 C -6.6842 -1.8497 0.0 0
M  V30 10 C -8.0119 -1.0554 0.0 0
M  V30 11 C -9.3397 -1.7249 0.0 0
M  V30 12 C -10.6674 -0.9305 0.0 0
M  V30 13 C -11.9952 -1.6001 0.0 0
M  V30 14 C -13.323 -0.8057 0.0 0
M  V30 15 C -14.6507 -1.4752 0.0 0
M  V30 16 C -15.9785 -0.6809 0.0 0
M  V30 17 C -17.3062 -1.3504 0.0 0
M  V30 END ATOM
M  V30 BEGIN BOND
M  V30 1 2 1 2
M  V30 2 1 2 3
M  V30 3 1 2 4
M  V30 4 1 3 5
M  V30 5 1 4 6
M  V30 6 1 6 7
M  V30 7 1 7 8
M  V30 8 1 8 9
M  V30 9 1 9 10
M  V30 10 1 10 11
M  V30 11 1 11 12
M  V30 12 1 12 13
M  V30 13 1 13 14
M  V30 14 1 14 15
M  V30 15 1 15 16
M  V30 16 1 16 17
M  V30 END BOND
M  V30 END CTAB
M  END
>  <Molecule Name>
methyl tetradecanoate

>  <Molecule Name 2>
methyl tetradecanoate

>  <Database>
Essential Oil Database

>  <InChI>
InChI=1S/C15H30O2/c1-3-4-5-6-7-8-9-10-11-12-13-14-15(16)17-2/h3-14H2,1-2H3

>  <InChI-Key>
ZAZKJZBWRNNLDS-UHFFFAOYSA-N

>  <Smiles>
CCCCCCCCCCCCCC(OC)=O

>  <Molecular Formula>
C15H30O2

$$$$
linalyl formate
Actelion Java MolfileCreator 2.0

  0  0  0  0  0  0              0 V3000
M  V30 BEGIN CTAB
M  V30 COUNTS 13 12 0 0 0
M  V30 BEGIN ATOM
M  V30 1 O 0.0 0.0 0.0 0
M  V30 2 C -0.7741 -1.2458 0.0 0
M  V30 3 O -2.3223 -1.1974 0.0 0
M  V30 4 C -3.1086 -2.4433 0.0 0 CFG=2
M  V30 5 C -1.8627 -3.169 0.0 0
M  V30 6 C -3.8827 -3.6891 0.0 0
M  V30 7 C -4.4512 -1.6692 0.0 0
M  V30 8 C -1.9111 -4.6205 0.0 0
M  V30 9 C -5.4309 -3.6408 0.0 0
M  V30 10 C -6.2172 -4.8866 0.0 0
M  V30 11 C -7.7654 -4.8382 0.0 0
M  V30 12 C -8.5516 -6.0841 0.0 0
M  V30 13 C -8.5516 -3.4956 0.0 0
M  V30 END ATOM
M  V30 BEGIN BOND
M  V30 1 2 1 2
M  V30 2 1 2 3
M  V30 3 1 3 4
M  V30 4 1 4 5
M  V30 5 1 4 6 CFG=3
M  V30 6 1 4 7
M  V30 7 2 5 8
M  V30 8 1 6 9
M  V30 9 1 9 10
M  V30 10 2 10 11
M  V30 11 1 11 12
M  V30 12 1 11 13
M  V30 END BOND
M  V30 BEGIN COLLECTION
M  V30 MDLV30/STERAC1 ATOMS=(1 4)
M  V30 END COLLECTION
M  V30 END CTAB
M  END
>  <Molecule Name>
linalyl formate

>  <Molecule Name 2>
linalyl formate

>  <Database>
Essential Oil Database

>  <InChI>
InChI=1S/C11H18O2/c1-5-11(4,13-9-12)8-6-7-10(2)3/h5,7,9H,1,6,8H2,2-4H3/t11-/m1/s1

>  <InChI-Key>
JZOCDHMHLGUPFI-LLVKDONJSA-N

>  <Smiles>
CC(CCC=C(C)C)(C=C)OC=O

>  <Molecular Formula>
C11H18O2

$$$$
ethylacetate
Actelion Java MolfileCreator 2.0

  0  0  0  0  0  0              0 V3000
M  V30 BEGIN CTAB
M  V30 COUNTS 6 5 0 0 0
M  V30 BEGIN ATOM
M  V30 1 O 0.0 0.0 0.0 0
M  V30 2 C -0.7689 -1.2375 0.0 0
M  V30 3 O -0.06 -2.475 0.0 0 CHG=-1
M  V30 4 C -2.3068 -1.1894 0.0 0
M  V30 5 C -3.0758 0.1441 0.0 0
M  V30 6 C -4.6137 0.1922 0.0 0
M  V30 END ATOM
M  V30 BEGIN BOND
M  V30 1 2 1 2
M  V30 2 1 2 3
M  V30 3 1 2 4
M  V30 4 1 4 5
M  V30 5 1 5 6
M  V30 END BOND
M  V30 END CTAB
M  END
>  <Molecule Name>
ethylacetate

>  <Molecule Name 2>
ethylacetate

>  <Database>
Essential Oil Database

>  <InChI>
InChI=1S/C4H8O2/c1-2-3-4(5)6/h2-3H2,1H3,(H,5,6)/p-1

>  <InChI-Key>
FERIUCNNQQJTOY-UHFFFAOYSA-M

>  <Smiles>
CCCC([O-])=O

>  <Molecular Formula>
C4H7O2

$$$$
2-phenyl-1-nitroethane
Actelion Java MolfileCreator 2.0

  0  0  0  0  0  0              0 V3000
M  V30 BEGIN CTAB
M  V30 COUNTS 11 11 0 0 0
M  V30 BEGIN ATOM
M  V30 1 O 0.0 0.0 0.0 0
M  V30 2 N 1.2919 -0.7111 0.0 0 CHG=1
M  V30 3 O 2.5838 0.1185 0.0 0 CHG=-1
M  V30 4 C 1.2445 -2.2045 0.0 0
M  V30 5 C 2.5364 -2.9038 0.0 0
M  V30 6 C 2.489 -4.3972 0.0 0
M  V30 7 C 3.7809 -5.0965 0.0 0
M  V30 8 C 1.1022 -5.0965 0.0 0
M  V30 9 C 3.7335 -6.5899 0.0 0
M  V30 10 C 1.0548 -6.5899 0.0 0
M  V30 11 C 2.3467 -7.2892 0.0 0
M  V30 END ATOM
M  V30 BEGIN BOND
M  V30 1 2 1 2
M  V30 2 1 2 3
M  V30 3 1 2 4
M  V30 4 1 4 5
M  V30 5 1 5 6
M  V30 6 2 6 7
M  V30 7 1 6 8
M  V30 8 1 7 9
M  V30 9 2 8 10
M  V30 10 2 9 11
M  V30 11 1 10 11
M  V30 END BOND
M  V30 END CTAB
M  END
>  <Molecule Name>
2-phenyl-1-nitroethane

>  <Molecule Name 2>
2-phenyl-1-nitroethane

>  <Database>
Essential Oil Database

>  <InChI>
InChI=1S/C8H9NO2/c10-9(11)7-6-8-4-2-1-3-5-8/h1-5H,6-7H2

>  <InChI-Key>
XAWCLWKTUKMCMO-UHFFFAOYSA-N

>  <Smiles>
[O-][N+](CCc1ccccc1)=O

>  <Molecular Formula>
C8H9NO2

$$$$
(e)-2-hexenol
Actelion Java MolfileCreator 2.0

  0  0  0  0  0  0              0 V3000
M  V30 BEGIN CTAB
M  V30 COUNTS 7 6 0 0 0
M  V30 BEGIN ATOM
M  V30 1 O 0.0 0.0 0.0 0
M  V30 2 C 0.7178 -1.2532 0.0 0
M  V30 3 C -0.0608 -2.5064 0.0 0
M  V30 4 C -1.6182 -2.4578 0.0 0
M  V30 5 C -2.4091 -3.711 0.0 0
M  V30 6 C -3.9665 -3.6623 0.0 0
M  V30 7 C -4.7574 -4.9156 0.0 0
M  V30 END ATOM
M  V30 BEGIN BOND
M  V30 1 1 1 2
M  V30 2 1 2 3
M  V30 3 2 3 4
M  V30 4 1 4 5
M  V30 5 1 5 6
M  V30 6 1 6 7
M  V30 END BOND
M  V30 END CTAB
M  END
>  <Molecule Name>
(e)-2-hexenol

>  <Molecule Name 2>
(e)-2-hexenol

>  <Database>
Essential Oil Database

>  <InChI>
InChI=1S/C6H12O/c1-2-3-4-5-6-7/h4-5,7H,2-3,6H2,1H3/b5-4+

>  <InChI-Key>
ZCHHRLHTBGRGOT-SNAWJCMRSA-N

>  <Smiles>
CCC/C=C/CO

>  <Molecular Formula>
C6H12O

$$$$
ethyl tetradecanoate
Actelion Java MolfileCreator 2.0

  0  0  0  0  0  0              0 V3000
M  V30 BEGIN CTAB
M  V30 COUNTS 18 17 0 0 0
M  V30 BEGIN ATOM
M  V30 1 O 0.0 0.0 0.0 0
M  V30 2 C -0.0474 1.5193 0.0 0
M  V30 3 O 1.175 2.2908 0.0 0
M  V30 4 C -1.365 2.2908 0.0 0
M  V30 5 C 2.3976 1.5786 0.0 0
M  V30 6 C -2.6825 1.5786 0.0 0
M  V30 7 C 3.6202 2.3501 0.0 0
M  V30 8 C -4.0 2.3501 0.0 0
M  V30 9 C -5.3175 1.638 0.0 0
M  V30 10 C -6.6351 2.4095 0.0 0
M  V30 11 C -7.9526 1.6973 0.0 0
M  V30 12 C -9.2701 2.4688 0.0 0
M  V30 13 C -10.5876 1.7567 0.0 0
M  V30 14 C -11.9052 2.5282 0.0 0
M  V30 15 C -13.2227 1.816 0.0 0
M  V30 16 C -14.5402 2.5875 0.0 0
M  V30 17 C -15.8578 1.8753 0.0 0
M  V30 18 C -17.1753 2.6469 0.0 0
M  V30 END ATOM
M  V30 BEGIN BOND
M  V30 1 2 1 2
M  V30 2 1 2 3
M  V30 3 1 2 4
M  V30 4 1 3 5
M  V30 5 1 4 6
M  V30 6 1 5 7
M  V30 7 1 6 8
M  V30 8 1 8 9
M  V30 9 1 9 10
M  V30 10 1 10 11
M  V30 11 1 11 12
M  V30 12 1 12 13
M  V30 13 1 13 14
M  V30 14 1 14 15
M  V30 15 1 15 16
M  V30 16 1 16 17
M  V30 17 1 17 18
M  V30 END BOND
M  V30 END CTAB
M  END
>  <Molecule Name>
ethyl tetradecanoate

>  <Molecule Name 2>
ethyl tetradecanoate

>  <Database>
Essential Oil Database

>  <InChI>
InChI=1S/C16H32O2/c1-3-5-6-7-8-9-10-11-12-13-14-15-16(17)18-4-2/h3-15H2,1-2H3

>  <InChI-Key>
MMKRHZKQPFCLLS-UHFFFAOYSA-N

>  <Smiles>
CCCCCCCCCCCCCC(OCC)=O

>  <Molecular Formula>
C16H32O2

$$$$
4-ethylguaiacol
Actelion Java MolfileCreator 2.0

  0  0  0  0  0  0              0 V3000
M  V30 BEGIN CTAB
M  V30 COUNTS 11 11 0 0 0
M  V30 BEGIN ATOM
M  V30 1 O 0.0 0.0 0.0 0
M  V30 2 C -0.0466 -1.4699 0.0 0
M  V30 3 C -1.3649 0.8166 0.0 0
M  V30 4 C -1.4116 -2.1582 0.0 0
M  V30 5 C 1.2249 -2.1582 0.0 0
M  V30 6 O -2.7766 -1.3416 0.0 0
M  V30 7 C -1.4583 -3.6282 0.0 0
M  V30 8 C 1.1783 -3.6282 0.0 0
M  V30 9 C -0.1866 -4.3165 0.0 0
M  V30 10 C 2.4499 -4.3165 0.0 0
M  V30 11 C 3.7215 -3.4999 0.0 0
M  V30 END ATOM
M  V30 BEGIN BOND
M  V30 1 1 1 2
M  V30 2 1 1 3
M  V30 3 2 2 4
M  V30 4 1 2 5
M  V30 5 1 4 6
M  V30 6 1 4 7
M  V30 7 2 5 8
M  V30 8 2 7 9
M  V30 9 1 8 10
M  V30 10 1 10 11
M  V30 11 1 8 9
M  V30 END BOND
M  V30 END CTAB
M  END
>  <Molecule Name>
4-ethylguaiacol

>  <Molecule Name 2>
4-ethylguaiacol

>  <Database>
Essential Oil Database

>  <InChI>
InChI=1S/C9H12O2/c1-3-7-4-5-8(10)9(6-7)11-2/h4-6,10H,3H2,1-2H3

>  <InChI-Key>
CHWNEIVBYREQRF-UHFFFAOYSA-N

>  <Smiles>
CCc(cc1)cc(OC)c1O

>  <Molecular Formula>
C9H12O2

$$$$
isobornyl propionate
Actelion Java MolfileCreator 2.0

  0  0  0  0  0  0              0 V3000
M  V30 BEGIN CTAB
M  V30 COUNTS 15 16 0 0 0
M  V30 BEGIN ATOM
M  V30 1 O 0.0 0.0 0.0 0
M  V30 2 C -0.0482 -1.4475 0.0 0
M  V30 3 O 1.1942 -2.1592 0.0 0
M  V30 4 C -1.3872 -2.1592 0.0 0
M  V30 5 C 2.4367 -1.3751 0.0 0
M  V30 6 C -2.7262 -1.3751 0.0 0
M  V30 7 C 3.6792 -2.0869 0.0 0 CFG=2
M  V30 8 C 2.3884 0.1688 0.0 0
M  V30 9 C 3.2449 -0.5428 0.0 0
M  V30 10 C 4.9217 -1.3028 0.0 0
M  V30 11 C 3.6309 -3.5344 0.0 0
M  V30 12 C 3.6309 0.9529 0.0 0 CFG=2
M  V30 13 C 1.7612 -0.0603 0.0 0
M  V30 14 C 1.7612 -0.9288 0.0 0
M  V30 15 C 4.8734 0.2412 0.0 0
M  V30 END ATOM
M  V30 BEGIN BOND
M  V30 1 2 1 2
M  V30 2 1 2 3
M  V30 3 1 2 4
M  V30 4 1 3 5
M  V30 5 1 4 6
M  V30 6 1 5 7
M  V30 7 1 5 8
M  V30 8 1 7 9
M  V30 9 1 7 10
M  V30 10 1 7 11 CFG=1
M  V30 11 1 12 8 CFG=1
M  V30 12 1 9 13
M  V30 13 1 9 14
M  V30 14 1 10 15
M  V30 15 1 9 12
M  V30 16 1 12 15
M  V30 END BOND
M  V30 BEGIN COLLECTION
M  V30 MDLV30/STEABS ATOMS=(2 7 12)
M  V30 END COLLECTION
M  V30 END CTAB
M  END
>  <Molecule Name>
isobornyl propionate

>  <Molecule Name 2>
isobornyl propionate

>  <Database>
Essential Oil Database

>  <InChI>
InChI=1S/C13H22O2/c1-5-11(14)15-10-8-9-6-7-13(10,4)12(9,2)3/h9-10H,5-8H2,1-4H3/t9-,10?,13-/m1/s1

>  <InChI-Key>
FAFMZORPAAGQFV-NDAPUWOLSA-N

>  <Smiles>
CCC(OC1[C@@](C)(CC2)C(C)(C)[C@H]2C1)=O

>  <Molecular Formula>
C13H22O2

$$$$
2-hexadecanone
Actelion Java MolfileCreator 2.0

  0  0  0  0  0  0              0 V3000
M  V30 BEGIN CTAB
M  V30 COUNTS 17 16 0 0 0
M  V30 BEGIN ATOM
M  V30 1 O 0.0 0.0 0.0 0
M  V30 2 C -0.0472 -1.4885 0.0 0
M  V30 3 C 1.2404 -2.1855 0.0 0
M  V30 4 C -1.4294 -2.1855 0.0 0
M  V30 5 C 2.5281 -1.3586 0.0 0
M  V30 6 C 3.8159 -2.0556 0.0 0
M  V30 7 C 5.1036 -1.2286 0.0 0
M  V30 8 C 6.3913 -1.9256 0.0 0
M  V30 9 C 7.679 -1.0986 0.0 0
M  V30 10 C 8.9668 -1.7957 0.0 0
M  V30 11 C 10.2545 -0.9687 0.0 0
M  V30 12 C 11.5422 -1.6657 0.0 0
M  V30 13 C 12.8299 -0.8387 0.0 0
M  V30 14 C 14.1176 -1.5358 0.0 0
M  V30 15 C 15.4054 -0.7088 0.0 0
M  V30 16 C 16.6931 -1.4058 0.0 0
M  V30 17 C 17.9808 -0.5788 0.0 0
M  V30 END ATOM
M  V30 BEGIN BOND
M  V30 1 2 1 2
M  V30 2 1 2 3
M  V30 3 1 2 4
M  V30 4 1 3 5
M  V30 5 1 5 6
M  V30 6 1 6 7
M  V30 7 1 7 8
M  V30 8 1 8 9
M  V30 9 1 9 10
M  V30 10 1 10 11
M  V30 11 1 11 12
M  V30 12 1 12 13
M  V30 13 1 13 14
M  V30 14 1 14 15
M  V30 15 1 15 16
M  V30 16 1 16 17
M  V30 END BOND
M  V30 END CTAB
M  END
>  <Molecule Name>
2-hexadecanone

>  <Molecule Name 2>
2-hexadecanone

>  <Database>
Essential Oil Database

>  <InChI>
InChI=1S/C16H32O/c1-3-4-5-6-7-8-9-10-11-12-13-14-15-16(2)17/h3-15H2,1-2H3

>  <InChI-Key>
XCXKZBWAKKPFCJ-UHFFFAOYSA-N

>  <Smiles>
CCCCCCCCCCCCCCC(C)=O

>  <Molecular Formula>
C16H32O

$$$$
3-methyl-3-butenol
Actelion Java MolfileCreator 2.0

  0  0  0  0  0  0              0 V3000
M  V30 BEGIN CTAB
M  V30 COUNTS 6 5 0 0 0
M  V30 BEGIN ATOM
M  V30 1 O 0.0 0.0 0.0 0
M  V30 2 C -0.7544 1.3084 0.0 0
M  V30 3 C -0.0589 2.6169 0.0 0
M  V30 4 C -0.8251 3.9254 0.0 0
M  V30 5 C -0.1296 5.2339 0.0 0
M  V30 6 C -2.334 3.9725 0.0 0
M  V30 END ATOM
M  V30 BEGIN BOND
M  V30 1 1 1 2
M  V30 2 1 2 3
M  V30 3 1 3 4
M  V30 4 2 4 5
M  V30 5 1 4 6
M  V30 END BOND
M  V30 END CTAB
M  END
>  <Molecule Name>
3-methyl-3-butenol

>  <Molecule Name 2>
3-methyl-3-butenol

>  <Database>
Essential Oil Database

>  <InChI>
InChI=1S/C5H10O/c1-5(2)3-4-6/h6H,1,3-4H2,2H3

>  <InChI-Key>
CPJRRXSHAYUTGL-UHFFFAOYSA-N

>  <Smiles>
CC(CCO)=C

>  <Molecular Formula>
C5H10O

$$$$
3-methyl-3-butenyl acetate
Actelion Java MolfileCreator 2.0

  0  0  0  0  0  0              0 V3000
M  V30 BEGIN CTAB
M  V30 COUNTS 9 8 0 0 0
M  V30 BEGIN ATOM
M  V30 1 O 0.0 0.0 0.0 0
M  V30 2 C 1.2878 -0.7089 0.0 0
M  V30 3 O 2.5756 0.1299 0.0 0
M  V30 4 C 1.2405 -2.1976 0.0 0
M  V30 5 C 3.8635 -0.5789 0.0 0
M  V30 6 C 5.1513 0.2599 0.0 0
M  V30 7 C 6.4392 -0.4489 0.0 0
M  V30 8 C 7.727 0.3898 0.0 0
M  V30 9 C 6.3919 -1.9376 0.0 0
M  V30 END ATOM
M  V30 BEGIN BOND
M  V30 1 2 1 2
M  V30 2 1 2 3
M  V30 3 1 2 4
M  V30 4 1 3 5
M  V30 5 1 5 6
M  V30 6 1 6 7
M  V30 7 2 7 8
M  V30 8 1 7 9
M  V30 END BOND
M  V30 END CTAB
M  END
>  <Molecule Name>
3-methyl-3-butenyl acetate

>  <Molecule Name 2>
3-methyl-3-butenyl acetate

>  <Database>
Essential Oil Database

>  <InChI>
InChI=1S/C7H12O2/c1-6(2)4-5-9-7(3)8/h1,4-5H2,2-3H3

>  <InChI-Key>
OCUAPVNNQFAQSM-UHFFFAOYSA-N

>  <Smiles>
CC(CCOC(C)=O)=C

>  <Molecular Formula>
C7H12O2

$$$$
acetoin
Actelion Java MolfileCreator 2.0

  0  0  0  0  0  0              0 V3000
M  V30 BEGIN CTAB
M  V30 COUNTS 6 5 0 0 0
M  V30 BEGIN ATOM
M  V30 1 O 0.0 0.0 0.0 0
M  V30 2 C 1.4686 0.0466 0.0 0
M  V30 3 C 2.1563 1.4103 0.0 0 CFG=1
M  V30 4 C 2.1563 -1.2238 0.0 0
M  V30 5 O 3.625 1.4569 0.0 0
M  V30 6 C 1.3404 2.7741 0.0 0
M  V30 END ATOM
M  V30 BEGIN BOND
M  V30 1 2 1 2
M  V30 2 1 2 3
M  V30 3 1 2 4
M  V30 4 1 3 5 CFG=3
M  V30 5 1 3 6
M  V30 END BOND
M  V30 BEGIN COLLECTION
M  V30 MDLV30/STERAC1 ATOMS=(1 3)
M  V30 END COLLECTION
M  V30 END CTAB
M  END
>  <Molecule Name>
acetoin

>  <Molecule Name 2>
acetoin

>  <Database>
Essential Oil Database

>  <InChI>
InChI=1S/C4H8O2/c1-3(5)4(2)6/h3,5H,1-2H3/t3-/m0/s1

>  <InChI-Key>
ROWKJAVDOGWPAT-VKHMYHEASA-N

>  <Smiles>
CC(C(C)=O)O

>  <Molecular Formula>
C4H8O2

$$$$
butyl acetate
Actelion Java MolfileCreator 2.0

  0  0  0  0  0  0              0 V3000
M  V30 BEGIN CTAB
M  V30 COUNTS 8 7 0 0 0
M  V30 BEGIN ATOM
M  V30 1 O 0.0 0.0 0.0 0
M  V30 2 C 1.2865 -0.7081 0.0 0
M  V30 3 O 2.5731 0.1298 0.0 0
M  V30 4 C 1.2393 -2.1954 0.0 0
M  V30 5 C 3.8596 -0.5783 0.0 0
M  V30 6 C 5.1462 0.2596 0.0 0
M  V30 7 C 6.4327 -0.4485 0.0 0
M  V30 8 C 7.7193 0.3895 0.0 0
M  V30 END ATOM
M  V30 BEGIN BOND
M  V30 1 2 1 2
M  V30 2 1 2 3
M  V30 3 1 2 4
M  V30 4 1 3 5
M  V30 5 1 5 6
M  V30 6 1 6 7
M  V30 7 1 7 8
M  V30 END BOND
M  V30 END CTAB
M  END
>  <Molecule Name>
butyl acetate

>  <Molecule Name 2>
butyl acetate

>  <Database>
Essential Oil Database

>  <InChI>
InChI=1S/C6H12O2/c1-3-4-5-8-6(2)7/h3-5H2,1-2H3

>  <InChI-Key>
DKPFZGUDAPQIHT-UHFFFAOYSA-N

>  <Smiles>
CCCCOC(C)=O

>  <Molecular Formula>
C6H12O2

$$$$
dihydro-4,4-dimethyl-2(3h)-furanone
Actelion Java MolfileCreator 2.0

  0  0  0  0  0  0              0 V3000
M  V30 BEGIN CTAB
M  V30 COUNTS 8 8 0 0 0
M  V30 BEGIN ATOM
M  V30 1 O 0.0 0.0 0.0 0
M  V30 2 C 0.843 1.2531 0.0 0
M  V30 3 O 2.2785 1.2987 0.0 0
M  V30 4 C 0.3531 2.7114 0.0 0
M  V30 5 C 2.6772 2.7569 0.0 0
M  V30 6 C 1.5152 3.6456 0.0 0
M  V30 7 C 0.7405 4.9899 0.0 0
M  V30 8 C 2.1759 4.9899 0.0 0
M  V30 END ATOM
M  V30 BEGIN BOND
M  V30 1 2 1 2
M  V30 2 1 2 3
M  V30 3 1 2 4
M  V30 4 1 3 5
M  V30 5 1 4 6
M  V30 6 1 6 7
M  V30 7 1 6 8
M  V30 8 1 5 6
M  V30 END BOND
M  V30 END CTAB
M  END
>  <Molecule Name>
dihydro-4,4-dimethyl-2(3h)-furanone

>  <Molecule Name 2>
dihydro-4,4-dimethyl-2(3h)-furanone

>  <Database>
Essential Oil Database

>  <InChI>
InChI=1S/C6H10O2/c1-6(2)3-5(7)8-4-6/h3-4H2,1-2H3

>  <InChI-Key>
LZAKUZBAAQDJCF-UHFFFAOYSA-N

>  <Smiles>
CC(C)(C1)COC1=O

>  <Molecular Formula>
C6H10O2

$$$$
(e)-2-pentenal
Actelion Java MolfileCreator 2.0

  0  0  0  0  0  0              0 V3000
M  V30 BEGIN CTAB
M  V30 COUNTS 6 5 0 0 0
M  V30 BEGIN ATOM
M  V30 1 O 0.0 0.0 0.0 0
M  V30 2 C 0.7161 -1.2502 0.0 0
M  V30 3 C -0.0606 -2.5004 0.0 0
M  V30 4 C -1.6143 -2.4519 0.0 0
M  V30 5 C -2.4033 -3.7021 0.0 0
M  V30 6 C -3.957 -3.6535 0.0 0
M  V30 END ATOM
M  V30 BEGIN BOND
M  V30 1 2 1 2
M  V30 2 1 2 3
M  V30 3 2 3 4
M  V30 4 1 4 5
M  V30 5 1 5 6
M  V30 END BOND
M  V30 END CTAB
M  END
>  <Molecule Name>
(e)-2-pentenal

>  <Molecule Name 2>
(e)-2-pentenal

>  <Database>
Essential Oil Database

>  <InChI>
InChI=1S/C5H8O/c1-2-3-4-5-6/h3-5H,2H2,1H3/b4-3+

>  <InChI-Key>
DTCCTIQRPGSLPT-ONEGZZNKSA-N

>  <Smiles>
CC/C=C/C=O

>  <Molecular Formula>
C5H8O

$$$$
ethanol
Actelion Java MolfileCreator 2.0

  0  0  0  0  0  0              0 V3000
M  V30 BEGIN CTAB
M  V30 COUNTS 3 2 0 0 0
M  V30 BEGIN ATOM
M  V30 1 O 0.0 0.0 0.0 0
M  V30 2 C -1.3156 -0.6783 0.0 0
M  V30 3 C -2.6313 0.0822 0.0 0
M  V30 END ATOM
M  V30 BEGIN BOND
M  V30 1 1 1 2
M  V30 2 1 2 3
M  V30 END BOND
M  V30 END CTAB
M  END
>  <Molecule Name>
ethanol

>  <Molecule Name 2>
ethanol

>  <Database>
Essential Oil Database

>  <InChI>
InChI=1S/C2H6O/c1-2-3/h3H,2H2,1H3

>  <InChI-Key>
LFQSCWFLJHTTHZ-UHFFFAOYSA-N

>  <Smiles>
CCO

>  <Molecular Formula>
C2H6O

$$$$
ethylbutanoate
Actelion Java MolfileCreator 2.0

  0  0  0  0  0  0              0 V3000
M  V30 BEGIN CTAB
M  V30 COUNTS 8 7 0 0 0
M  V30 BEGIN ATOM
M  V30 1 O 0.0 0.0 0.0 0
M  V30 2 C 1.2865 -0.7081 0.0 0
M  V30 3 O 1.2393 -2.1954 0.0 0 CHG=-1
M  V30 4 C 2.5731 0.1298 0.0 0
M  V30 5 C 3.8596 -0.5783 0.0 0
M  V30 6 C 5.1462 0.2596 0.0 0
M  V30 7 C 6.4327 -0.4485 0.0 0
M  V30 8 C 7.7193 0.3895 0.0 0
M  V30 END ATOM
M  V30 BEGIN BOND
M  V30 1 2 1 2
M  V30 2 1 2 3
M  V30 3 1 2 4
M  V30 4 1 4 5
M  V30 5 1 5 6
M  V30 6 1 6 7
M  V30 7 1 7 8
M  V30 END BOND
M  V30 END CTAB
M  END
>  <Molecule Name>
ethylbutanoate

>  <Molecule Name 2>
ethylbutanoate

>  <Database>
Essential Oil Database

>  <InChI>
InChI=1S/C6H12O2/c1-2-3-4-5-6(7)8/h2-5H2,1H3,(H,7,8)/p-1

>  <InChI-Key>
FUZZWVXGSFPDMH-UHFFFAOYSA-M

>  <Smiles>
CCCCCC([O-])=O

>  <Molecular Formula>
C6H11O2

$$$$
ethyl decanoate
Actelion Java MolfileCreator 2.0

  0  0  0  0  0  0              0 V3000
M  V30 BEGIN CTAB
M  V30 COUNTS 14 13 0 0 0
M  V30 BEGIN ATOM
M  V30 1 O 0.0 0.0 0.0 0
M  V30 2 C -0.0476 1.5253 0.0 0
M  V30 3 O 1.1797 2.2999 0.0 0
M  V30 4 C -1.3704 2.2999 0.0 0
M  V30 5 C 2.4072 1.5968 0.0 0
M  V30 6 C -2.6932 1.5968 0.0 0
M  V30 7 C 3.6346 2.3714 0.0 0
M  V30 8 C -4.0159 2.3714 0.0 0
M  V30 9 C -5.3387 1.6683 0.0 0
M  V30 10 C -6.6615 2.4429 0.0 0
M  V30 11 C -7.9843 1.7398 0.0 0
M  V30 12 C -9.307 2.5144 0.0 0
M  V30 13 C -10.6298 1.8113 0.0 0
M  V30 14 C -11.9526 2.5859 0.0 0
M  V30 END ATOM
M  V30 BEGIN BOND
M  V30 1 2 1 2
M  V30 2 1 2 3
M  V30 3 1 2 4
M  V30 4 1 3 5
M  V30 5 1 4 6
M  V30 6 1 5 7
M  V30 7 1 6 8
M  V30 8 1 8 9
M  V30 9 1 9 10
M  V30 10 1 10 11
M  V30 11 1 11 12
M  V30 12 1 12 13
M  V30 13 1 13 14
M  V30 END BOND
M  V30 END CTAB
M  END
>  <Molecule Name>
ethyl decanoate

>  <Molecule Name 2>
ethyl decanoate

>  <Database>
Essential Oil Database

>  <InChI>
InChI=1S/C12H24O2/c1-3-5-6-7-8-9-10-11-12(13)14-4-2/h3-11H2,1-2H3

>  <InChI-Key>
RGXWDWUGBIJHDO-UHFFFAOYSA-N

>  <Smiles>
CCCCCCCCCC(OCC)=O

>  <Molecular Formula>
C12H24O2

$$$$
ethyl dodecanoate
Actelion Java MolfileCreator 2.0

  0  0  0  0  0  0              0 V3000
M  V30 BEGIN CTAB
M  V30 COUNTS 16 15 0 0 0
M  V30 BEGIN ATOM
M  V30 1 O 0.0 0.0 0.0 0
M  V30 2 C -0.0475 1.5205 0.0 0
M  V30 3 O 1.176 2.2927 0.0 0
M  V30 4 C -1.3661 2.2927 0.0 0
M  V30 5 C 2.3996 1.5799 0.0 0
M  V30 6 C -2.6847 1.5799 0.0 0
M  V30 7 C 3.6232 2.3521 0.0 0
M  V30 8 C -4.0033 2.3521 0.0 0
M  V30 9 C -5.3219 1.6393 0.0 0
M  V30 10 C -6.6405 2.4115 0.0 0
M  V30 11 C -7.9591 1.6987 0.0 0
M  V30 12 C -9.2777 2.4709 0.0 0
M  V30 13 C -10.5963 1.7581 0.0 0
M  V30 14 C -11.9149 2.5421 0.0 0
M  V30 15 C -13.2336 1.8294 0.0 0
M  V30 16 C -14.5522 2.6015 0.0 0
M  V30 END ATOM
M  V30 BEGIN BOND
M  V30 1 2 1 2
M  V30 2 1 2 3
M  V30 3 1 2 4
M  V30 4 1 3 5
M  V30 5 1 4 6
M  V30 6 1 5 7
M  V30 7 1 6 8
M  V30 8 1 8 9
M  V30 9 1 9 10
M  V30 10 1 10 11
M  V30 11 1 11 12
M  V30 12 1 12 13
M  V30 13 1 13 14
M  V30 14 1 14 15
M  V30 15 1 15 16
M  V30 END BOND
M  V30 END CTAB
M  END
>  <Molecule Name>
ethyl dodecanoate

>  <Molecule Name 2>
ethyl dodecanoate

>  <Database>
Essential Oil Database

>  <InChI>
InChI=1S/C14H28O2/c1-3-5-6-7-8-9-10-11-12-13-14(15)16-4-2/h3-13H2,1-2H3

>  <InChI-Key>
MMXKVMNBHPAILY-UHFFFAOYSA-N

>  <Smiles>
CCCCCCCCCCCC(OCC)=O

>  <Molecular Formula>
C14H28O2

$$$$
ethyl hexanoate
Actelion Java MolfileCreator 2.0

  0  0  0  0  0  0              0 V3000
M  V30 BEGIN CTAB
M  V30 COUNTS 10 9 0 0 0
M  V30 BEGIN ATOM
M  V30 1 O 0.0 0.0 0.0 0
M  V30 2 C -0.0478 1.5304 0.0 0
M  V30 3 O 1.1836 2.3075 0.0 0
M  V30 4 C -1.3749 2.3075 0.0 0
M  V30 5 C 2.4151 1.5901 0.0 0
M  V30 6 C -2.7021 1.5901 0.0 0
M  V30 7 C 3.6466 2.3673 0.0 0
M  V30 8 C -4.0292 2.3673 0.0 0
M  V30 9 C -5.3564 1.6499 0.0 0
M  V30 10 C -6.6836 2.4271 0.0 0
M  V30 END ATOM
M  V30 BEGIN BOND
M  V30 1 2 1 2
M  V30 2 1 2 3
M  V30 3 1 2 4
M  V30 4 1 3 5
M  V30 5 1 4 6
M  V30 6 1 5 7
M  V30 7 1 6 8
M  V30 8 1 8 9
M  V30 9 1 9 10
M  V30 END BOND
M  V30 END CTAB
M  END
>  <Molecule Name>
ethyl hexanoate

>  <Molecule Name 2>
ethyl hexanoate

>  <Database>
Essential Oil Database

>  <InChI>
InChI=1S/C8H16O2/c1-3-5-6-7-8(9)10-4-2/h3-7H2,1-2H3

>  <InChI-Key>
SHZIWNPUGXLXDT-UHFFFAOYSA-N

>  <Smiles>
CCCCCC(OCC)=O

>  <Molecular Formula>
C8H16O2

$$$$
ethyl octanoate
Actelion Java MolfileCreator 2.0

  0  0  0  0  0  0              0 V3000
M  V30 BEGIN CTAB
M  V30 COUNTS 12 11 0 0 0
M  V30 BEGIN ATOM
M  V30 1 O 0.0 0.0 0.0 0
M  V30 2 C -0.0476 1.5261 0.0 0
M  V30 3 O 1.1803 2.301 0.0 0
M  V30 4 C -1.3711 2.301 0.0 0
M  V30 5 C 2.4083 1.5857 0.0 0
M  V30 6 C -2.6945 1.5857 0.0 0
M  V30 7 C 3.6364 2.3606 0.0 0
M  V30 8 C -4.0179 2.3606 0.0 0
M  V30 9 C -5.3413 1.6453 0.0 0
M  V30 10 C -6.6647 2.4203 0.0 0
M  V30 11 C -7.9882 1.7049 0.0 0
M  V30 12 C -9.3116 2.4799 0.0 0
M  V30 END ATOM
M  V30 BEGIN BOND
M  V30 1 2 1 2
M  V30 2 1 2 3
M  V30 3 1 2 4
M  V30 4 1 3 5
M  V30 5 1 4 6
M  V30 6 1 5 7
M  V30 7 1 6 8
M  V30 8 1 8 9
M  V30 9 1 9 10
M  V30 10 1 10 11
M  V30 11 1 11 12
M  V30 END BOND
M  V30 END CTAB
M  END
>  <Molecule Name>
ethyl octanoate

>  <Molecule Name 2>
ethyl octanoate

>  <Database>
Essential Oil Database

>  <InChI>
InChI=1S/C10H20O2/c1-3-5-6-7-8-9-10(11)12-4-2/h3-9H2,1-2H3

>  <InChI-Key>
YYZUSRORWSJGET-UHFFFAOYSA-N

>  <Smiles>
CCCCCCCC(OCC)=O

>  <Molecular Formula>
C10H20O2

$$$$
gamma-octalactone
Actelion Java MolfileCreator 2.0

  0  0  0  0  0  0              0 V3000
M  V30 BEGIN CTAB
M  V30 COUNTS 10 10 0 0 0
M  V30 BEGIN ATOM
M  V30 1 O 0.0 0.0 0.0 0
M  V30 2 C 0.8175 1.2503 0.0 0
M  V30 3 O 0.3005 2.7171 0.0 0
M  V30 4 C 2.2603 1.2984 0.0 0
M  V30 5 C 1.4547 3.6309 0.0 0 CFG=2
M  V30 6 C 2.6811 2.7652 0.0 0
M  V30 7 C 1.4066 5.1698 0.0 0
M  V30 8 C 2.645 5.9513 0.0 0
M  V30 9 C 2.5969 7.4903 0.0 0
M  V30 10 C 3.8353 8.2718 0.0 0
M  V30 END ATOM
M  V30 BEGIN BOND
M  V30 1 2 1 2
M  V30 2 1 2 3
M  V30 3 1 2 4
M  V30 4 1 3 5
M  V30 5 1 4 6
M  V30 6 1 5 7 CFG=1
M  V30 7 1 7 8
M  V30 8 1 8 9
M  V30 9 1 9 10
M  V30 10 1 5 6
M  V30 END BOND
M  V30 BEGIN COLLECTION
M  V30 MDLV30/STERAC1 ATOMS=(1 5)
M  V30 END COLLECTION
M  V30 END CTAB
M  END
>  <Molecule Name>
gamma-octalactone

>  <Molecule Name 2>
gamma-octalactone

>  <Database>
Essential Oil Database

>  <InChI>
InChI=1S/C8H14O2/c1-2-3-4-7-5-6-8(9)10-7/h7H,2-6H2,1H3/t7-/m0/s1

>  <InChI-Key>
IPBFYZQJXZJBFQ-ZETCQYMHSA-N

>  <Smiles>
CCCCC(CC1)OC1=O

>  <Molecular Formula>
C8H14O2

$$$$
isoamyl acetate
Actelion Java MolfileCreator 2.0

  0  0  0  0  0  0              0 V3000
M  V30 BEGIN CTAB
M  V30 COUNTS 9 8 0 0 0
M  V30 BEGIN ATOM
M  V30 1 O 0.0 0.0 0.0 0
M  V30 2 C 1.2878 -0.7089 0.0 0
M  V30 3 O 2.5756 0.1299 0.0 0
M  V30 4 C 1.2405 -2.1976 0.0 0
M  V30 5 C 3.8635 -0.5789 0.0 0
M  V30 6 C 5.1513 0.2599 0.0 0
M  V30 7 C 6.4392 -0.4489 0.0 0
M  V30 8 C 7.727 0.3898 0.0 0
M  V30 9 C 6.3919 -1.9376 0.0 0
M  V30 END ATOM
M  V30 BEGIN BOND
M  V30 1 2 1 2
M  V30 2 1 2 3
M  V30 3 1 2 4
M  V30 4 1 3 5
M  V30 5 1 5 6
M  V30 6 1 6 7
M  V30 7 1 7 8
M  V30 8 1 7 9
M  V30 END BOND
M  V30 END CTAB
M  END
>  <Molecule Name>
isoamyl acetate

>  <Molecule Name 2>
isoamyl acetate

>  <Database>
Essential Oil Database

>  <InChI>
InChI=1S/C7H14O2/c1-6(2)4-5-9-7(3)8/h6H,4-5H2,1-3H3

>  <InChI-Key>
MLFHJEHSLIIPHL-UHFFFAOYSA-N

>  <Smiles>
CC(C)CCOC(C)=O

>  <Molecular Formula>
C7H14O2

$$$$
isobutylacetate
Actelion Java MolfileCreator 2.0

  0  0  0  0  0  0              0 V3000
M  V30 BEGIN CTAB
M  V30 COUNTS 8 7 0 0 0
M  V30 BEGIN ATOM
M  V30 1 O 0.0 0.0 0.0 0
M  V30 2 C -0.0471 -1.4862 0.0 0
M  V30 3 O -1.4273 -2.1822 0.0 0 CHG=-1
M  V30 4 C 1.2385 -2.1822 0.0 0
M  V30 5 C 2.5243 -1.3565 0.0 0
M  V30 6 C 3.8101 -2.0525 0.0 0
M  V30 7 C 5.0958 -1.2267 0.0 0
M  V30 8 C 3.7629 -3.5388 0.0 0
M  V30 END ATOM
M  V30 BEGIN BOND
M  V30 1 2 1 2
M  V30 2 1 2 3
M  V30 3 1 2 4
M  V30 4 1 4 5
M  V30 5 1 5 6
M  V30 6 1 6 7
M  V30 7 1 6 8
M  V30 END BOND
M  V30 END CTAB
M  END
>  <Molecule Name>
isobutylacetate

>  <Molecule Name 2>
isobutylacetate

>  <Database>
Essential Oil Database

>  <InChI>
InChI=1S/C6H12O2/c1-5(2)3-4-6(7)8/h5H,3-4H2,1-2H3,(H,7,8)/p-1

>  <InChI-Key>
FGKJLKRYENPLQH-UHFFFAOYSA-M

>  <Smiles>
CC(C)CCC([O-])=O

>  <Molecular Formula>
C6H11O2

$$$$
methyl-2-hydroxy-3-methyl pentanoate
Actelion Java MolfileCreator 2.0

  0  0  0  0  0  0              0 V3000
M  V30 BEGIN CTAB
M  V30 COUNTS 10 9 0 0 0
M  V30 BEGIN ATOM
M  V30 1 O 0.0 0.0 0.0 0
M  V30 2 C -0.0481 -1.4459 0.0 0
M  V30 3 O 1.1929 -2.1689 0.0 0
M  V30 4 C -1.3857 -2.1689 0.0 0
M  V30 5 C 2.434 -1.3736 0.0 0
M  V30 6 O -1.4339 -3.6148 0.0 0
M  V30 7 C -2.7232 -1.3736 0.0 0
M  V30 8 C -4.0607 -2.0966 0.0 0
M  V30 9 C -2.7714 0.1686 0.0 0
M  V30 10 C -5.3982 -1.3013 0.0 0
M  V30 END ATOM
M  V30 BEGIN BOND
M  V30 1 2 1 2
M  V30 2 1 2 3
M  V30 3 1 2 4
M  V30 4 1 3 5
M  V30 5 1 4 6
M  V30 6 1 4 7
M  V30 7 1 7 8
M  V30 8 1 7 9
M  V30 9 1 8 10
M  V30 END BOND
M  V30 END CTAB
M  END
>  <Molecule Name>
methyl-2-hydroxy-3-methyl pentanoate

>  <Molecule Name 2>
methyl-2-hydroxy-3-methyl pentanoate

>  <Database>
Essential Oil Database

>  <InChI>
InChI=1S/C7H14O3/c1-4-5(2)6(8)7(9)10-3/h5-6,8H,4H2,1-3H3

>  <InChI-Key>
OQXGUAUSWWFHOM-UHFFFAOYSA-N

>  <Smiles>
CCC(C)C(C(OC)=O)O

>  <Molecular Formula>
C7H14O3

$$$$
methyl-2-hydroxy-4-methyl pentanoate
Actelion Java MolfileCreator 2.0

  0  0  0  0  0  0              0 V3000
M  V30 BEGIN CTAB
M  V30 COUNTS 10 9 0 0 0
M  V30 BEGIN ATOM
M  V30 1 O 0.0 0.0 0.0 0
M  V30 2 C -0.046 -1.451 0.0 0
M  V30 3 O 1.2092 -2.1765 0.0 0
M  V30 4 C -1.3934 -2.1765 0.0 0 CFG=1
M  V30 5 C 2.4644 -1.3589 0.0 0
M  V30 6 O -1.4395 -3.6276 0.0 0
M  V30 7 C -2.7408 -1.3589 0.0 0
M  V30 8 C -4.0882 -2.0498 0.0 0
M  V30 9 C -5.4356 -1.2322 0.0 0
M  V30 10 C -4.1343 -3.5009 0.0 0
M  V30 END ATOM
M  V30 BEGIN BOND
M  V30 1 2 1 2
M  V30 2 1 2 3
M  V30 3 1 2 4
M  V30 4 1 3 5
M  V30 5 1 4 6 CFG=1
M  V30 6 1 4 7
M  V30 7 1 7 8
M  V30 8 1 8 9
M  V30 9 1 8 10
M  V30 END BOND
M  V30 BEGIN COLLECTION
M  V30 MDLV30/STERAC1 ATOMS=(1 4)
M  V30 END COLLECTION
M  V30 END CTAB
M  END
>  <Molecule Name>
methyl-2-hydroxy-4-methyl pentanoate

>  <Molecule Name 2>
methyl-2-hydroxy-4-methyl pentanoate

>  <Database>
Essential Oil Database

>  <InChI>
InChI=1S/C7H14O3/c1-5(2)4-6(8)7(9)10-3/h5-6,8H,4H2,1-3H3/t6-/m0/s1

>  <InChI-Key>
JOSNYUDSMPILKL-LURJTMIESA-N

>  <Smiles>
CC(C)CC(C(OC)=O)O

>  <Molecular Formula>
C7H14O3

$$$$
methyl acetate
Actelion Java MolfileCreator 2.0

  0  0  0  0  0  0              0 V3000
M  V30 BEGIN CTAB
M  V30 COUNTS 5 4 0 0 0
M  V30 BEGIN ATOM
M  V30 1 O 0.0 0.0 0.0 0
M  V30 2 C -1.5161 0.0473 0.0 0
M  V30 3 O -2.286 1.3621 0.0 0
M  V30 4 C -2.286 -1.1726 0.0 0
M  V30 5 C -3.8021 1.4095 0.0 0
M  V30 END ATOM
M  V30 BEGIN BOND
M  V30 1 2 1 2
M  V30 2 1 2 3
M  V30 3 1 2 4
M  V30 4 1 3 5
M  V30 END BOND
M  V30 END CTAB
M  END
>  <Molecule Name>
methyl acetate

>  <Molecule Name 2>
methyl acetate

>  <Database>
Essential Oil Database

>  <InChI>
InChI=1S/C3H6O2/c1-3(4)5-2/h1-2H3

>  <InChI-Key>
KXKVLQRXCPHEJC-UHFFFAOYSA-N

>  <Smiles>
CC(OC)=O

>  <Molecular Formula>
C3H6O2

$$$$
methyl butanoate
Actelion Java MolfileCreator 2.0

  0  0  0  0  0  0              0 V3000
M  V30 BEGIN CTAB
M  V30 COUNTS 7 6 0 0 0
M  V30 BEGIN ATOM
M  V30 1 O 0.0 0.0 0.0 0
M  V30 2 C -0.0462 -1.4576 0.0 0
M  V30 3 O 1.2147 -2.1402 0.0 0
M  V30 4 C -1.3998 -2.1402 0.0 0
M  V30 5 C 2.4757 -1.3304 0.0 0
M  V30 6 C -2.7533 -1.3304 0.0 0
M  V30 7 C -4.1069 -2.0129 0.0 0
M  V30 END ATOM
M  V30 BEGIN BOND
M  V30 1 2 1 2
M  V30 2 1 2 3
M  V30 3 1 2 4
M  V30 4 1 3 5
M  V30 5 1 4 6
M  V30 6 1 6 7
M  V30 END BOND
M  V30 END CTAB
M  END
>  <Molecule Name>
methyl butanoate

>  <Molecule Name 2>
methyl butanoate

>  <Database>
Essential Oil Database

>  <InChI>
InChI=1S/C5H10O2/c1-3-4-5(6)7-2/h3-4H2,1-2H3

>  <InChI-Key>
UUIQMZJEGPQKFD-UHFFFAOYSA-N

>  <Smiles>
CCCC(OC)=O

>  <Molecular Formula>
C5H10O2

$$$$
methyl decanoate
Actelion Java MolfileCreator 2.0

  0  0  0  0  0  0              0 V3000
M  V30 BEGIN CTAB
M  V30 COUNTS 13 12 0 0 0
M  V30 BEGIN ATOM
M  V30 1 O 0.0 0.0 0.0 0
M  V30 2 C -0.0453 -1.4271 0.0 0
M  V30 3 O 1.1893 -2.1067 0.0 0
M  V30 4 C -1.3705 -2.1067 0.0 0
M  V30 5 C 2.4239 -1.3025 0.0 0
M  V30 6 C -2.6957 -1.3025 0.0 0
M  V30 7 C -4.021 -1.9935 0.0 0
M  V30 8 C -5.3462 -1.1893 0.0 0
M  V30 9 C -6.6714 -1.8802 0.0 0
M  V30 10 C -7.9967 -1.076 0.0 0
M  V30 11 C -9.3219 -1.7896 0.0 0
M  V30 12 C -10.6472 -0.9854 0.0 0
M  V30 13 C -11.9724 -1.699 0.0 0
M  V30 END ATOM
M  V30 BEGIN BOND
M  V30 1 2 1 2
M  V30 2 1 2 3
M  V30 3 1 2 4
M  V30 4 1 3 5
M  V30 5 1 4 6
M  V30 6 1 6 7
M  V30 7 1 7 8
M  V30 8 1 8 9
M  V30 9 1 9 10
M  V30 10 1 10 11
M  V30 11 1 11 12
M  V30 12 1 12 13
M  V30 END BOND
M  V30 END CTAB
M  END
>  <Molecule Name>
methyl decanoate

>  <Molecule Name 2>
methyl decanoate

>  <Database>
Essential Oil Database

>  <InChI>
InChI=1S/C11H22O2/c1-3-4-5-6-7-8-9-10-11(12)13-2/h3-10H2,1-2H3

>  <InChI-Key>
YRHYCMZPEVDGFQ-UHFFFAOYSA-N

>  <Smiles>
CCCCCCCCCC(OC)=O

>  <Molecular Formula>
C11H22O2

$$$$
methyl (e)-2-hexenoate
Actelion Java MolfileCreator 2.0

  0  0  0  0  0  0              0 V3000
M  V30 BEGIN CTAB
M  V30 COUNTS 9 8 0 0 0
M  V30 BEGIN ATOM
M  V30 1 O 0.0 0.0 0.0 0
M  V30 2 C 0.7184 -1.2542 0.0 0
M  V30 3 O 2.1797 -1.2055 0.0 0
M  V30 4 C -0.0608 -2.5084 0.0 0
M  V30 5 C 2.8981 0.1461 0.0 0
M  V30 6 C -1.6195 -2.4597 0.0 0
M  V30 7 C -2.411 -3.714 0.0 0
M  V30 8 C -3.9697 -3.6653 0.0 0
M  V30 9 C -4.7612 -4.9195 0.0 0
M  V30 END ATOM
M  V30 BEGIN BOND
M  V30 1 2 1 2
M  V30 2 1 2 3
M  V30 3 1 2 4
M  V30 4 1 3 5
M  V30 5 2 4 6
M  V30 6 1 6 7
M  V30 7 1 7 8
M  V30 8 1 8 9
M  V30 END BOND
M  V30 END CTAB
M  END
>  <Molecule Name>
methyl (e)-2-hexenoate

>  <Molecule Name 2>
methyl (e)-2-hexenoate

>  <Database>
Essential Oil Database

>  <InChI>
InChI=1S/C7H12O2/c1-3-4-5-6-7(8)9-2/h5-6H,3-4H2,1-2H3/b6-5+

>  <InChI-Key>
GFUGBRNILVVWIE-AATRIKPKSA-N

>  <Smiles>
CCC/C=C/C(OC)=O

>  <Molecular Formula>
C7H12O2

$$$$
methyl heptanoate
Actelion Java MolfileCreator 2.0

  0  0  0  0  0  0              0 V3000
M  V30 BEGIN CTAB
M  V30 COUNTS 10 9 0 0 0
M  V30 BEGIN ATOM
M  V30 1 O 0.0 0.0 0.0 0
M  V30 2 C -0.0454 -1.433 0.0 0
M  V30 3 O 1.1941 -2.1154 0.0 0
M  V30 4 C -1.3761 -2.1154 0.0 0
M  V30 5 C 2.4338 -1.3079 0.0 0
M  V30 6 C -2.7068 -1.3079 0.0 0
M  V30 7 C -4.0374 -2.0244 0.0 0
M  V30 8 C -5.3681 -1.2169 0.0 0
M  V30 9 C -6.6988 -1.8993 0.0 0
M  V30 10 C -8.0294 -1.0918 0.0 0
M  V30 END ATOM
M  V30 BEGIN BOND
M  V30 1 2 1 2
M  V30 2 1 2 3
M  V30 3 1 2 4
M  V30 4 1 3 5
M  V30 5 1 4 6
M  V30 6 1 6 7
M  V30 7 1 7 8
M  V30 8 1 8 9
M  V30 9 1 9 10
M  V30 END BOND
M  V30 END CTAB
M  END
>  <Molecule Name>
methyl heptanoate

>  <Molecule Name 2>
methyl heptanoate

>  <Database>
Essential Oil Database

>  <InChI>
InChI=1S/C8H16O2/c1-3-4-5-6-7-8(9)10-2/h3-7H2,1-2H3

>  <InChI-Key>
XNCNNDVCAUWAIT-UHFFFAOYSA-N

>  <Smiles>
CCCCCCC(OC)=O

>  <Molecular Formula>
C8H16O2

$$$$
2-nonanol
Actelion Java MolfileCreator 2.0

  0  0  0  0  0  0              0 V3000
M  V30 BEGIN CTAB
M  V30 COUNTS 10 9 0 0 0
M  V30 BEGIN ATOM
M  V30 1 O 0.0 0.0 0.0 0
M  V30 2 C -0.049 1.5688 0.0 0 CFG=2
M  V30 3 C 1.2133 2.3654 0.0 0
M  V30 4 C -1.4094 2.3654 0.0 0
M  V30 5 C 2.4757 1.63 0.0 0
M  V30 6 C 3.7381 2.4267 0.0 0
M  V30 7 C 5.0005 1.6913 0.0 0
M  V30 8 C 6.2629 2.488 0.0 0
M  V30 9 C 7.5253 1.7526 0.0 0
M  V30 10 C 8.7877 2.5493 0.0 0
M  V30 END ATOM
M  V30 BEGIN BOND
M  V30 1 1 2 1 CFG=1
M  V30 2 1 2 3
M  V30 3 1 2 4
M  V30 4 1 3 5
M  V30 5 1 5 6
M  V30 6 1 6 7
M  V30 7 1 7 8
M  V30 8 1 8 9
M  V30 9 1 9 10
M  V30 END BOND
M  V30 BEGIN COLLECTION
M  V30 MDLV30/STERAC1 ATOMS=(1 2)
M  V30 END COLLECTION
M  V30 END CTAB
M  END
>  <Molecule Name>
2-nonanol

>  <Molecule Name 2>
2-nonanol

>  <Database>
Essential Oil Database

>  <InChI>
InChI=1S/C9H20O/c1-3-4-5-6-7-8-9(2)10/h9-10H,3-8H2,1-2H3/t9-/m0/s1

>  <InChI-Key>
NGDNVOAEIVQRFH-VIFPVBQESA-N

>  <Smiles>
CCCCCCCC(C)O

>  <Molecular Formula>
C9H20O

$$$$
3-methyl-2-butanol
Actelion Java MolfileCreator 2.0

  0  0  0  0  0  0              0 V3000
M  V30 BEGIN CTAB
M  V30 COUNTS 6 5 0 0 0
M  V30 BEGIN ATOM
M  V30 1 O 0.0 0.0 0.0 0
M  V30 2 C -1.5353 0.0479 0.0 0 CFG=2
M  V30 3 C -2.315 -1.1875 0.0 0
M  V30 4 C -2.315 1.3794 0.0 0
M  V30 5 C -1.6073 -2.423 0.0 0
M  V30 6 C -3.8504 -1.1395 0.0 0
M  V30 END ATOM
M  V30 BEGIN BOND
M  V30 1 1 2 1 CFG=3
M  V30 2 1 2 3
M  V30 3 1 2 4
M  V30 4 1 3 5
M  V30 5 1 3 6
M  V30 END BOND
M  V30 BEGIN COLLECTION
M  V30 MDLV30/STERAC1 ATOMS=(1 2)
M  V30 END COLLECTION
M  V30 END CTAB
M  END
>  <Molecule Name>
3-methyl-2-butanol

>  <Molecule Name 2>
3-methyl-2-butanol

>  <Database>
Essential Oil Database

>  <InChI>
InChI=1S/C5H12O/c1-4(2)5(3)6/h4-6H,1-3H3/t5-/m0/s1

>  <InChI-Key>
MXLMTQWGSQIYOW-YFKPBYRVSA-N

>  <Smiles>
CC(C)C(C)O

>  <Molecular Formula>
C5H12O

$$$$
3-methyl-5-butyl-2-(3h)-furanone
Actelion Java MolfileCreator 2.0

  0  0  0  0  0  0              0 V3000
M  V30 BEGIN CTAB
M  V30 COUNTS 11 11 0 0 0
M  V30 BEGIN ATOM
M  V30 1 O 0.0 0.0 0.0 0
M  V30 2 C -0.8946 1.2242 0.0 0
M  V30 3 O -0.4826 2.6604 0.0 0
M  V30 4 C -2.4014 1.2713 0.0 0 CFG=2
M  V30 5 C -1.7069 3.5551 0.0 0
M  V30 6 C -2.9076 2.7075 0.0 0
M  V30 7 C -3.2961 0.1412 0.0 0
M  V30 8 C -1.754 5.0619 0.0 0
M  V30 9 C -3.0607 5.8153 0.0 0
M  V30 10 C -3.1077 7.3221 0.0 0
M  V30 11 C -4.4144 8.0755 0.0 0
M  V30 END ATOM
M  V30 BEGIN BOND
M  V30 1 2 1 2
M  V30 2 1 2 3
M  V30 3 1 2 4
M  V30 4 1 3 5
M  V30 5 1 4 6
M  V30 6 1 4 7 CFG=1
M  V30 7 1 5 8
M  V30 8 1 8 9
M  V30 9 1 9 10
M  V30 10 1 10 11
M  V30 11 2 5 6
M  V30 END BOND
M  V30 BEGIN COLLECTION
M  V30 MDLV30/STERAC1 ATOMS=(1 4)
M  V30 END COLLECTION
M  V30 END CTAB
M  END
>  <Molecule Name>
3-methyl-5-butyl-2-(3h)-furanone

>  <Molecule Name 2>
3-methyl-5-butyl-2-(3h)-furanone

>  <Database>
Essential Oil Database

>  <InChI>
InChI=1S/C9H14O2/c1-3-4-5-8-6-7(2)9(10)11-8/h6-7H,3-5H2,1-2H3/t7-/m0/s1

>  <InChI-Key>
YIVUNKYFICGYDH-ZETCQYMHSA-N

>  <Smiles>
CCCCC(O1)=CC(C)C1=O

>  <Molecular Formula>
C9H14O2

$$$$
abietal
Actelion Java MolfileCreator 2.0

  0  0  0  0  0  0              0 V3000
M  V30 BEGIN CTAB
M  V30 COUNTS 21 23 0 0 0
M  V30 BEGIN ATOM
M  V30 1 O 0.0 0.0 0.0 0
M  V30 2 C -0.3121 -1.4164 0.0 0
M  V30 3 C -1.7526 -1.8846 0.0 0 CFG=1
M  V30 4 C -3.2891 -1.8366 0.0 0 CFG=1
M  V30 5 C -1.0443 -3.121 0.0 0
M  V30 6 C -2.0647 -0.3721 0.0 0
M  V30 7 C -4.0574 -3.073 0.0 0 CFG=1
M  V30 8 C -4.0574 -0.5041 0.0 0
M  V30 9 C -1.8126 -4.3575 0.0 0
M  V30 10 C -5.5939 -3.025 0.0 0 CFG=2
M  V30 11 C -3.3491 -4.3095 0.0 0
M  V30 12 C -4.8376 -4.3095 0.0 0
M  V30 13 C -5.5939 -0.4561 0.0 0
M  V30 14 C -6.3742 -1.6925 0.0 0
M  V30 15 C -6.3742 -4.2614 0.0 0
M  V30 16 C -7.9107 -1.6445 0.0 0
M  V30 17 C -7.9107 -4.2134 0.0 0
M  V30 18 C -8.679 -2.881 0.0 0
M  V30 19 C -10.2155 -2.8329 0.0 0
M  V30 20 C -10.9958 -4.0694 0.0 0
M  V30 21 C -10.9958 -1.5005 0.0 0
M  V30 END ATOM
M  V30 BEGIN BOND
M  V30 1 2 1 2
M  V30 2 1 2 3
M  V30 3 1 3 4
M  V30 4 1 3 5
M  V30 5 1 3 6 CFG=1
M  V30 6 1 4 7
M  V30 7 1 4 8 CFG=1
M  V30 8 1 5 9
M  V30 9 1 7 10
M  V30 10 1 7 11
M  V30 11 1 7 12 CFG=1
M  V30 12 1 8 13
M  V30 13 1 10 14
M  V30 14 1 10 15 CFG=1
M  V30 15 1 14 16
M  V30 16 1 15 17
M  V30 17 2 16 18
M  V30 18 1 18 19
M  V30 19 1 19 20
M  V30 20 1 19 21
M  V30 21 1 9 11
M  V30 22 2 13 14
M  V30 23 1 17 18
M  V30 END BOND
M  V30 BEGIN COLLECTION
M  V30 MDLV30/STEABS ATOMS=(4 3 4 7 10)
M  V30 END COLLECTION
M  V30 END CTAB
M  END
>  <Molecule Name>
abietal

>  <Molecule Name 2>
abietal

>  <Database>
Essential Oil Database

>  <InChI>
InChI=1S/C20H30O/c1-14(2)15-6-8-17-16(12-15)7-9-18-19(3,13-21)10-5-11-20(17,18)4/h7,12-14,17-18H,5-6,8-11H2,1-4H3/t17-,18-,19-,20+/m0/s1

>  <InChI-Key>
HOFSYSONRIGEAC-LWYYNNOASA-N

>  <Smiles>
CC(C)C(CC[C@@H]1[C@@]2(C)CCC3)=CC1=CC[C@H]2[C@]3(C)C=O

>  <Molecular Formula>
C20H30O

$$$$
ethyl-3-hydroxyhexanoate
Actelion Java MolfileCreator 2.0

  0  0  0  0  0  0              0 V3000
M  V30 BEGIN CTAB
M  V30 COUNTS 11 10 0 0 0
M  V30 BEGIN ATOM
M  V30 1 O 0.0 0.0 0.0 0
M  V30 2 C -0.048 1.537 0.0 0
M  V30 3 O 1.1887 2.3175 0.0 0
M  V30 4 C -1.3809 2.3175 0.0 0
M  V30 5 C 2.4256 1.597 0.0 0
M  V30 6 C -2.7137 1.597 0.0 0 CFG=1
M  V30 7 C 3.6624 2.3775 0.0 0
M  V30 8 O -2.7618 0.1561 0.0 0
M  V30 9 C -4.0466 2.3775 0.0 0
M  V30 10 C -5.3795 1.657 0.0 0
M  V30 11 C -6.7124 2.4376 0.0 0
M  V30 END ATOM
M  V30 BEGIN BOND
M  V30 1 2 1 2
M  V30 2 1 2 3
M  V30 3 1 2 4
M  V30 4 1 3 5
M  V30 5 1 4 6
M  V30 6 1 5 7
M  V30 7 1 6 8 CFG=1
M  V30 8 1 6 9
M  V30 9 1 9 10
M  V30 10 1 10 11
M  V30 END BOND
M  V30 BEGIN COLLECTION
M  V30 MDLV30/STERAC1 ATOMS=(1 6)
M  V30 END COLLECTION
M  V30 END CTAB
M  END
>  <Molecule Name>
ethyl-3-hydroxyhexanoate

>  <Molecule Name 2>
ethyl-3-hydroxyhexanoate

>  <Database>
Essential Oil Database

>  <InChI>
InChI=1S/C8H16O3/c1-3-5-7(9)6-8(10)11-4-2/h7,9H,3-6H2,1-2H3/t7-/m0/s1

>  <InChI-Key>
LYRIITRHDCNUHV-ZETCQYMHSA-N

>  <Smiles>
CCCC(CC(OCC)=O)O

>  <Molecular Formula>
C8H16O3

$$$$
ethyl-3-methyl butyrate
Actelion Java MolfileCreator 2.0

  0  0  0  0  0  0              0 V3000
M  V30 BEGIN CTAB
M  V30 COUNTS 9 8 0 0 0
M  V30 BEGIN ATOM
M  V30 1 O 0.0 0.0 0.0 0
M  V30 2 C -0.0482 1.5447 0.0 0
M  V30 3 O 1.1947 2.3291 0.0 0
M  V30 4 C -1.3878 2.3291 0.0 0
M  V30 5 C 2.4377 1.605 0.0 0
M  V30 6 C -2.7273 1.605 0.0 0
M  V30 7 C 3.6807 2.3894 0.0 0
M  V30 8 C -4.0669 2.3894 0.0 0
M  V30 9 C -2.7756 0.1568 0.0 0
M  V30 END ATOM
M  V30 BEGIN BOND
M  V30 1 2 1 2
M  V30 2 1 2 3
M  V30 3 1 2 4
M  V30 4 1 3 5
M  V30 5 1 4 6
M  V30 6 1 5 7
M  V30 7 1 6 8
M  V30 8 1 6 9
M  V30 END BOND
M  V30 END CTAB
M  END
>  <Molecule Name>
ethyl-3-methyl butyrate

>  <Molecule Name 2>
ethyl-3-methyl butyrate

>  <Database>
Essential Oil Database

>  <InChI>
InChI=1S/C7H14O2/c1-4-9-7(8)5-6(2)3/h6H,4-5H2,1-3H3

>  <InChI-Key>
PPXUHEORWJQRHJ-UHFFFAOYSA-N

>  <Smiles>
CCOC(CC(C)C)=O

>  <Molecular Formula>
C7H14O2

$$$$
methyl-3-hydroxy decanoate
Actelion Java MolfileCreator 2.0

  0  0  0  0  0  0              0 V3000
M  V30 BEGIN CTAB
M  V30 COUNTS 14 13 0 0 0
M  V30 BEGIN ATOM
M  V30 1 O 0.0 0.0 0.0 0
M  V30 2 C -0.0476 -1.4307 0.0 0
M  V30 3 O 1.1803 -2.146 0.0 0
M  V30 4 C -1.371 -2.146 0.0 0
M  V30 5 C 2.4083 -1.371 0.0 0
M  V30 6 C -2.6944 -1.371 0.0 0 CFG=1
M  V30 7 O -2.7421 0.1549 0.0 0
M  V30 8 C -4.0178 -2.0864 0.0 0
M  V30 9 C -5.3412 -1.2995 0.0 0
M  V30 10 C -6.6646 -2.0149 0.0 0
M  V30 11 C -7.988 -1.228 0.0 0
M  V30 12 C -9.3114 -1.9433 0.0 0
M  V30 13 C -10.6348 -1.1684 0.0 0
M  V30 14 C -11.9582 -1.8837 0.0 0
M  V30 END ATOM
M  V30 BEGIN BOND
M  V30 1 2 1 2
M  V30 2 1 2 3
M  V30 3 1 2 4
M  V30 4 1 3 5
M  V30 5 1 4 6
M  V30 6 1 6 7 CFG=3
M  V30 7 1 6 8
M  V30 8 1 8 9
M  V30 9 1 9 10
M  V30 10 1 10 11
M  V30 11 1 11 12
M  V30 12 1 12 13
M  V30 13 1 13 14
M  V30 END BOND
M  V30 BEGIN COLLECTION
M  V30 MDLV30/STERAC1 ATOMS=(1 6)
M  V30 END COLLECTION
M  V30 END CTAB
M  END
>  <Molecule Name>
methyl-3-hydroxy decanoate

>  <Molecule Name 2>
methyl-3-hydroxy decanoate

>  <Database>
Essential Oil Database

>  <InChI>
InChI=1S/C11H22O3/c1-3-4-5-6-7-8-10(12)9-11(13)14-2/h10,12H,3-9H2,1-2H3/t10-/m0/s1

>  <InChI-Key>
UBVACUZVNTVHTE-JTQLQIEISA-N

>  <Smiles>
CCCCCCCC(CC(OC)=O)O

>  <Molecular Formula>
C11H22O3

$$$$
methyl-3-hydroxy hexadecanoate
Actelion Java MolfileCreator 2.0

  0  0  0  0  0  0              0 V3000
M  V30 BEGIN CTAB
M  V30 COUNTS 20 19 0 0 0
M  V30 BEGIN ATOM
M  V30 1 O 0.0 0.0 0.0 0
M  V30 2 C -0.0475 -1.4257 0.0 0
M  V30 3 O 1.1762 -2.1267 0.0 0
M  V30 4 C -1.3663 -2.1267 0.0 0
M  V30 5 C 2.3999 -1.3425 0.0 0
M  V30 6 C -2.6851 -1.3425 0.0 0 CFG=1
M  V30 7 O -2.7326 0.1782 0.0 0
M  V30 8 C -4.0038 -2.0435 0.0 0
M  V30 9 C -5.3226 -1.2593 0.0 0
M  V30 10 C -6.6414 -1.9603 0.0 0
M  V30 11 C -7.9602 -1.1762 0.0 0
M  V30 12 C -9.279 -1.8771 0.0 0
M  V30 13 C -10.5978 -1.093 0.0 0
M  V30 14 C -11.9166 -1.794 0.0 0
M  V30 15 C -13.2354 -1.0098 0.0 0
M  V30 16 C -14.5542 -1.7108 0.0 0
M  V30 17 C -15.873 -0.9267 0.0 0
M  V30 18 C -17.1918 -1.6276 0.0 0
M  V30 19 C -18.5106 -0.8435 0.0 0
M  V30 20 C -19.8294 -1.5445 0.0 0
M  V30 END ATOM
M  V30 BEGIN BOND
M  V30 1 2 1 2
M  V30 2 1 2 3
M  V30 3 1 2 4
M  V30 4 1 3 5
M  V30 5 1 4 6
M  V30 6 1 6 7 CFG=3
M  V30 7 1 6 8
M  V30 8 1 8 9
M  V30 9 1 9 10
M  V30 10 1 10 11
M  V30 11 1 11 12
M  V30 12 1 12 13
M  V30 13 1 13 14
M  V30 14 1 14 15
M  V30 15 1 15 16
M  V30 16 1 16 17
M  V30 17 1 17 18
M  V30 18 1 18 19
M  V30 19 1 19 20
M  V30 END BOND
M  V30 BEGIN COLLECTION
M  V30 MDLV30/STERAC1 ATOMS=(1 6)
M  V30 END COLLECTION
M  V30 END CTAB
M  END
>  <Molecule Name>
methyl-3-hydroxy hexadecanoate

>  <Molecule Name 2>
methyl-3-hydroxy hexadecanoate

>  <Database>
Essential Oil Database

>  <InChI>
InChI=1S/C17H34O3/c1-3-4-5-6-7-8-9-10-11-12-13-14-16(18)15-17(19)20-2/h16,18H,3-15H2,1-2H3/t16-/m0/s1

>  <InChI-Key>
YBTWUESFQWFDMR-INIZCTEOSA-N

>  <Smiles>
CCCCCCCCCCCCCC(CC(OC)=O)O

>  <Molecular Formula>
C17H34O3

$$$$
methyl-3-hydroxy tetradecanoate
Actelion Java MolfileCreator 2.0

  0  0  0  0  0  0              0 V3000
M  V30 BEGIN CTAB
M  V30 COUNTS 18 17 0 0 0
M  V30 BEGIN ATOM
M  V30 1 O 0.0 0.0 0.0 0
M  V30 2 C -0.0476 -1.4296 0.0 0
M  V30 3 O 1.1794 -2.1325 0.0 0
M  V30 4 C -1.37 -2.1325 0.0 0
M  V30 5 C 2.4066 -1.3581 0.0 0
M  V30 6 C -2.6925 -1.3581 0.0 0 CFG=1
M  V30 7 O -2.7401 0.1667 0.0 0
M  V30 8 C -4.0149 -2.0611 0.0 0
M  V30 9 C -5.3374 -1.2867 0.0 0
M  V30 10 C -6.6598 -1.9896 0.0 0
M  V30 11 C -7.9823 -1.2152 0.0 0
M  V30 12 C -9.3047 -1.9181 0.0 0
M  V30 13 C -10.6272 -1.1437 0.0 0
M  V30 14 C -11.9496 -1.8466 0.0 0
M  V30 15 C -13.272 -1.0722 0.0 0
M  V30 16 C -14.5945 -1.7751 0.0 0
M  V30 17 C -15.9169 -1.0007 0.0 0
M  V30 18 C -17.2394 -1.7036 0.0 0
M  V30 END ATOM
M  V30 BEGIN BOND
M  V30 1 2 1 2
M  V30 2 1 2 3
M  V30 3 1 2 4
M  V30 4 1 3 5
M  V30 5 1 4 6
M  V30 6 1 6 7 CFG=3
M  V30 7 1 6 8
M  V30 8 1 8 9
M  V30 9 1 9 10
M  V30 10 1 10 11
M  V30 11 1 11 12
M  V30 12 1 12 13
M  V30 13 1 13 14
M  V30 14 1 14 15
M  V30 15 1 15 16
M  V30 16 1 16 17
M  V30 17 1 17 18
M  V30 END BOND
M  V30 BEGIN COLLECTION
M  V30 MDLV30/STERAC1 ATOMS=(1 6)
M  V30 END COLLECTION
M  V30 END CTAB
M  END
>  <Molecule Name>
methyl-3-hydroxy tetradecanoate

>  <Molecule Name 2>
methyl-3-hydroxy tetradecanoate

>  <Database>
Essential Oil Database

>  <InChI>
InChI=1S/C15H30O3/c1-3-4-5-6-7-8-9-10-11-12-14(16)13-15(17)18-2/h14,16H,3-13H2,1-2H3/t14-/m0/s1

>  <InChI-Key>
UOZZAMWODZQSOA-AWEZNQCLSA-N

>  <Smiles>
CCCCCCCCCCCC(CC(OC)=O)O

>  <Molecular Formula>
C15H30O3

$$$$
methyl (e)-2-octenoate
Actelion Java MolfileCreator 2.0

  0  0  0  0  0  0              0 V3000
M  V30 BEGIN CTAB
M  V30 COUNTS 11 10 0 0 0
M  V30 BEGIN ATOM
M  V30 1 O 0.0 0.0 0.0 0
M  V30 2 C -0.0488 1.5644 0.0 0
M  V30 3 O -1.4055 2.3711 0.0 0
M  V30 4 C 1.21 2.3711 0.0 0
M  V30 5 C -2.7622 1.65 0.0 0
M  V30 6 C 2.4689 1.65 0.0 0
M  V30 7 C 3.7278 2.4444 0.0 0
M  V30 8 C 4.9866 1.7233 0.0 0
M  V30 9 C 6.2455 2.53 0.0 0
M  V30 10 C 7.5044 1.8089 0.0 0
M  V30 11 C 8.7633 2.6033 0.0 0
M  V30 END ATOM
M  V30 BEGIN BOND
M  V30 1 2 1 2
M  V30 2 1 2 3
M  V30 3 1 2 4
M  V30 4 1 3 5
M  V30 5 2 4 6
M  V30 6 1 6 7
M  V30 7 1 7 8
M  V30 8 1 8 9
M  V30 9 1 9 10
M  V30 10 1 10 11
M  V30 END BOND
M  V30 END CTAB
M  END
>  <Molecule Name>
methyl (e)-2-octenoate

>  <Molecule Name 2>
methyl (e)-2-octenoate

>  <Database>
Essential Oil Database

>  <InChI>
InChI=1S/C9H16O2/c1-3-4-5-6-7-8-9(10)11-2/h7-8H,3-6H2,1-2H3/b8-7+

>  <InChI-Key>
CJBQSBZJDJHMLF-BQYQJAHWSA-N

>  <Smiles>
CCCCC/C=C/C(OC)=O

>  <Molecular Formula>
C9H16O2

$$$$
methyl (z)-4-octenoate
Actelion Java MolfileCreator 2.0

  0  0  0  0  0  0              0 V3000
M  V30 BEGIN CTAB
M  V30 COUNTS 11 10 0 0 0
M  V30 BEGIN ATOM
M  V30 1 O 0.0 0.0 0.0 0
M  V30 2 C -0.0478 -1.4346 0.0 0
M  V30 3 O 1.1836 -2.14 0.0 0
M  V30 4 C -1.3748 -2.14 0.0 0
M  V30 5 C 2.415 -1.3509 0.0 0
M  V30 6 C -2.7019 -1.3509 0.0 0
M  V30 7 C -2.7497 0.1793 0.0 0
M  V30 8 C -4.0768 0.9684 0.0 0
M  V30 9 C -5.4039 0.251 0.0 0
M  V30 10 C -6.7309 1.0401 0.0 0
M  V30 11 C -8.058 0.3228 0.0 0
M  V30 END ATOM
M  V30 BEGIN BOND
M  V30 1 2 1 2
M  V30 2 1 2 3
M  V30 3 1 2 4
M  V30 4 1 3 5
M  V30 5 1 4 6
M  V30 6 1 6 7
M  V30 7 2 7 8
M  V30 8 1 8 9
M  V30 9 1 9 10
M  V30 10 1 10 11
M  V30 END BOND
M  V30 END CTAB
M  END
>  <Molecule Name>
methyl (z)-4-octenoate

>  <Molecule Name 2>
methyl (z)-4-octenoate

>  <Database>
Essential Oil Database

>  <InChI>
InChI=1S/C9H16O2/c1-3-4-5-6-7-8-9(10)11-2/h5-6H,3-4,7-8H2,1-2H3/b6-5-

>  <InChI-Key>
SSPBQLGVUAXSMH-WAYWQWQTSA-N

>  <Smiles>
CCC/C=C\CCC(OC)=O

>  <Molecular Formula>
C9H16O2

$$$$
4-phenylbutan-2-one
Actelion Java MolfileCreator 2.0

  0  0  0  0  0  0              0 V3000
M  V30 BEGIN CTAB
M  V30 COUNTS 11 11 0 0 0
M  V30 BEGIN ATOM
M  V30 1 O 0.0 0.0 0.0 0
M  V30 2 C -1.3725 -0.7038 0.0 0
M  V30 3 C -1.4194 -2.182 0.0 0
M  V30 4 C -2.7451 0.129 0.0 0
M  V30 5 C -0.1407 -2.8741 0.0 0
M  V30 6 C -0.1877 -4.3522 0.0 0
M  V30 7 C 1.091 -5.0444 0.0 0
M  V30 8 C -1.5602 -5.0444 0.0 0
M  V30 9 C 1.044 -6.5225 0.0 0
M  V30 10 C -1.6071 -6.5225 0.0 0
M  V30 11 C -0.3284 -7.2147 0.0 0
M  V30 END ATOM
M  V30 BEGIN BOND
M  V30 1 2 1 2
M  V30 2 1 2 3
M  V30 3 1 2 4
M  V30 4 1 3 5
M  V30 5 1 5 6
M  V30 6 2 6 7
M  V30 7 1 6 8
M  V30 8 1 7 9
M  V30 9 2 8 10
M  V30 10 2 9 11
M  V30 11 1 10 11
M  V30 END BOND
M  V30 END CTAB
M  END
>  <Molecule Name>
4-phenylbutan-2-one

>  <Molecule Name 2>
4-phenylbutan-2-one

>  <Database>
Essential Oil Database

>  <InChI>
InChI=1S/C10H12O/c1-9(11)7-8-10-5-3-2-4-6-10/h2-6H,7-8H2,1H3

>  <InChI-Key>
AKGGYBADQZYZPD-UHFFFAOYSA-N

>  <Smiles>
CC(CCc1ccccc1)=O

>  <Molecular Formula>
C10H12O

$$$$
p-mentha-1,8-dien-2-ol
Actelion Java MolfileCreator 2.0

  0  0  0  0  0  0              0 V3000
M  V30 BEGIN CTAB
M  V30 COUNTS 11 11 0 0 0
M  V30 BEGIN ATOM
M  V30 1 O 0.0 0.0 0.0 0
M  V30 2 C 1.2756 -0.7307 0.0 0
M  V30 3 C 2.5512 0.0619 0.0 0
M  V30 4 C 1.226 -2.2168 0.0 0
M  V30 5 C 3.8269 -0.6687 0.0 0
M  V30 6 C 2.5017 1.6471 0.0 0
M  V30 7 C 2.5017 -2.9475 0.0 0 CFG=2
M  V30 8 C 3.7773 -2.1549 0.0 0
M  V30 9 C 2.4521 -4.4337 0.0 0
M  V30 10 C 3.7278 -5.1768 0.0 0
M  V30 11 C 1.0774 -5.1768 0.0 0
M  V30 END ATOM
M  V30 BEGIN BOND
M  V30 1 1 1 2
M  V30 2 2 2 3
M  V30 3 1 2 4
M  V30 4 1 3 5
M  V30 5 1 3 6
M  V30 6 1 4 7
M  V30 7 1 5 8
M  V30 8 1 7 9 CFG=3
M  V30 9 2 9 10
M  V30 10 1 9 11
M  V30 11 1 7 8
M  V30 END BOND
M  V30 BEGIN COLLECTION
M  V30 MDLV30/STERAC1 ATOMS=(1 7)
M  V30 END COLLECTION
M  V30 END CTAB
M  END
>  <Molecule Name>
p-mentha-1,8-dien-2-ol

>  <Molecule Name 2>
p-mentha-1,8-dien-2-ol

>  <Database>
Essential Oil Database

>  <InChI>
InChI=1S/C10H16O/c1-7(2)9-5-4-8(3)10(11)6-9/h9,11H,1,4-6H2,2-3H3/t9-/m0/s1

>  <InChI-Key>
MZJVVSSFVFMRTM-VIFPVBQESA-N

>  <Smiles>
CC(C1CC(O)=C(C)CC1)=C

>  <Molecular Formula>
C10H16O

$$$$
beta-santalene
Actelion Java MolfileCreator 2.0

  0  0  0  0  0  0              0 V3000
M  V30 BEGIN CTAB
M  V30 COUNTS 15 16 0 0 0
M  V30 BEGIN ATOM
M  V30 1 C 0.0 0.0 0.0 0
M  V30 2 C -1.3552 0.7915 0.0 0
M  V30 3 C -0.0479 -1.4631 0.0 0 CFG=1
M  V30 4 C 1.2592 0.7915 0.0 0 CFG=1
M  V30 5 C 1.2112 -2.1707 0.0 0 CFG=2
M  V30 6 C -0.6116 -2.8303 0.0 0
M  V30 7 C -1.583 -1.1513 0.0 0
M  V30 8 C 0.8275 -0.6716 0.0 0
M  V30 9 C 2.5185 0.0839 0.0 0
M  V30 10 C 2.4705 -1.3791 0.0 0
M  V30 11 C 0.3118 -3.9337 0.0 0
M  V30 12 C -0.2518 -5.3009 0.0 0
M  V30 13 C -1.7869 -5.5167 0.0 0
M  V30 14 C -2.3506 -6.884 0.0 0
M  V30 15 C -2.8063 -4.3174 0.0 0
M  V30 END ATOM
M  V30 BEGIN BOND
M  V30 1 2 1 2
M  V30 2 1 1 3
M  V30 3 1 1 4
M  V30 4 1 3 5
M  V30 5 1 3 6
M  V30 6 1 3 7 CFG=3
M  V30 7 1 4 8 CFG=1
M  V30 8 1 4 9
M  V30 9 1 5 10 CFG=3
M  V30 10 1 6 11
M  V30 11 1 11 12
M  V30 12 2 12 13
M  V30 13 1 13 14
M  V30 14 1 13 15
M  V30 15 1 5 8
M  V30 16 1 9 10
M  V30 END BOND
M  V30 BEGIN COLLECTION
M  V30 MDLV30/STEABS ATOMS=(3 3 4 5)
M  V30 END COLLECTION
M  V30 END CTAB
M  END
>  <Molecule Name>
beta-santalene

>  <Molecule Name 2>
beta-santalene

>  <Database>
Essential Oil Database

>  <InChI>
InChI=1S/C15H24/c1-11(2)6-5-9-15(4)12(3)13-7-8-14(15)10-13/h6,13-14H,3,5,7-10H2,1-2,4H3/t13-,14+,15+/m1/s1

>  <InChI-Key>
PGBNIHXXFQBCPU-ILXRZTDVSA-N

>  <Smiles>
C[C@@](CCC=C(C)C)([C@@H]1C[C@H]2CC1)C2=C

>  <Molecular Formula>
C15H24

$$$$
isopinocamphone
Actelion Java MolfileCreator 2.0

  0  0  0  0  0  0              0 V3000
M  V30 BEGIN CTAB
M  V30 COUNTS 11 12 0 0 0
M  V30 BEGIN ATOM
M  V30 1 O 0.0 0.0 0.0 0
M  V30 2 C -1.5603 0.0365 0.0 0
M  V30 3 C -2.3405 -1.2312 0.0 0 CFG=2
M  V30 4 C -2.3649 1.3775 0.0 0
M  V30 5 C -3.9009 -1.1946 0.0 0 CFG=1
M  V30 6 C -1.5969 -2.4746 0.0 0
M  V30 7 C -3.9253 1.414 0.0 0 CFG=2
M  V30 8 C -4.7055 0.1462 0.0 0
M  V30 9 C -4.1447 0.3169 0.0 0
M  V30 10 C -6.0952 0.902 0.0 0
M  V30 11 C -6.0708 -0.5485 0.0 0
M  V30 END ATOM
M  V30 BEGIN BOND
M  V30 1 2 1 2
M  V30 2 1 2 3
M  V30 3 1 2 4
M  V30 4 1 3 5
M  V30 5 1 3 6 CFG=1
M  V30 6 1 7 4 CFG=1
M  V30 7 1 5 8
M  V30 8 1 5 9 CFG=3
M  V30 9 1 8 10
M  V30 10 1 8 11
M  V30 11 1 7 8
M  V30 12 1 7 9
M  V30 END BOND
M  V30 BEGIN COLLECTION
M  V30 MDLV30/STEABS ATOMS=(3 3 5 7)
M  V30 END COLLECTION
M  V30 END CTAB
M  END
>  <Molecule Name>
isopinocamphone

>  <Molecule Name 2>
isopinocamphone

>  <Database>
Essential Oil Database

>  <InChI>
InChI=1S/C10H16O/c1-6-8-4-7(5-9(6)11)10(8,2)3/h6-8H,4-5H2,1-3H3/t6-,7+,8-/m0/s1

>  <InChI-Key>
MQPHVIPKLRXGDJ-RNJXMRFFSA-N

>  <Smiles>
C[C@@H]([C@H](C1)C(C)(C)[C@H]1C1)C1=O

>  <Molecular Formula>
C10H16O

$$$$
4-acetyl-1-methylcyclohexene
Actelion Java MolfileCreator 2.0

  0  0  0  0  0  0              0 V3000
M  V30 BEGIN CTAB
M  V30 COUNTS 10 10 0 0 0
M  V30 BEGIN ATOM
M  V30 1 O 0.0 0.0 0.0 0
M  V30 2 C -1.3137 0.7574 0.0 0
M  V30 3 C -1.361 2.2723 0.0 0 CFG=2
M  V30 4 C -2.6274 0.0473 0.0 0
M  V30 5 C -0.142 3.0416 0.0 0
M  V30 6 C -2.6747 3.0416 0.0 0
M  V30 7 C -0.1893 4.5565 0.0 0
M  V30 8 C -2.722 4.5565 0.0 0
M  V30 9 C -1.503 5.3258 0.0 0
M  V30 10 C -1.5504 6.8407 0.0 0
M  V30 END ATOM
M  V30 BEGIN BOND
M  V30 1 2 1 2
M  V30 2 1 3 2 CFG=1
M  V30 3 1 2 4
M  V30 4 1 3 5
M  V30 5 1 3 6
M  V30 6 1 5 7
M  V30 7 1 6 8
M  V30 8 2 7 9
M  V30 9 1 9 10
M  V30 10 1 8 9
M  V30 END BOND
M  V30 BEGIN COLLECTION
M  V30 MDLV30/STERAC1 ATOMS=(1 3)
M  V30 END COLLECTION
M  V30 END CTAB
M  END
>  <Molecule Name>
4-acetyl-1-methylcyclohexene

>  <Molecule Name 2>
4-acetyl-1-methylcyclohexene

>  <Database>
Essential Oil Database

>  <InChI>
InChI=1S/C9H14O/c1-7-3-5-9(6-4-7)8(2)10/h3,9H,4-6H2,1-2H3/t9-/m1/s1

>  <InChI-Key>
HOBBEYSRFFJETF-SECBINFHSA-N

>  <Smiles>
CC(C1CC=C(C)CC1)=O

>  <Molecular Formula>
C9H14O

$$$$
mustakone
Actelion Java MolfileCreator 2.0

  0  0  0  0  0  0              0 V3000
M  V30 BEGIN CTAB
M  V30 COUNTS 16 18 0 0 0
M  V30 BEGIN ATOM
M  V30 1 O 0.0 0.0 0.0 0
M  V30 2 C -0.7194 -1.2494 0.0 0
M  V30 3 C -0.0378 -2.4737 0.0 0
M  V30 4 C -2.2213 -1.4009 0.0 0
M  V30 5 C -0.7825 -3.7358 0.0 0
M  V30 6 C -3.5717 -2.4232 0.0 0
M  V30 7 C -1.5902 -2.6251 0.0 0
M  V30 8 C -2.3601 -3.6348 0.0 0
M  V30 9 C -0.0757 -4.9348 0.0 0
M  V30 10 C -4.3795 -1.1232 0.0 0
M  V30 11 C -4.7581 -3.2436 0.0 0
M  V30 12 C -3.2057 -3.3572 0.0 0 CFG=1
M  V30 13 C -3.2941 -1.3883 0.0 0
M  V30 14 C -4.0261 -4.5309 0.0 0
M  V30 15 C -3.3824 -5.7552 0.0 0
M  V30 16 C -5.528 -4.4299 0.0 0
M  V30 END ATOM
M  V30 BEGIN BOND
M  V30 1 2 1 2
M  V30 2 1 2 3
M  V30 3 1 2 4
M  V30 4 2 3 5
M  V30 5 1 4 6
M  V30 6 1 4 7
M  V30 7 1 5 8
M  V30 8 1 5 9
M  V30 9 1 6 10
M  V30 10 1 6 11
M  V30 11 1 7 12
M  V30 12 1 10 13
M  V30 13 1 12 14 CFG=3
M  V30 14 1 14 15
M  V30 15 1 14 16
M  V30 16 1 6 8
M  V30 17 1 7 8
M  V30 18 1 12 13
M  V30 END BOND
M  V30 BEGIN COLLECTION
M  V30 MDLV30/STEABS ATOMS=(1 12)
M  V30 END COLLECTION
M  V30 END CTAB
M  END
>  <Molecule Name>
mustakone

>  <Molecule Name 2>
mustakone

>  <Database>
Essential Oil Database

>  <InChI>
InChI=1S/C15H22O/c1-8(2)10-5-6-15(4)13-9(3)7-11(16)14(15)12(10)13/h7-8,10,12-14H,5-6H2,1-4H3/t10-,12?,13?,14?,15?/m0/s1

>  <InChI-Key>
CTFSUCDHRVDRKG-MGZXXMPLSA-N

>  <Smiles>
CC(C)[C@H](CCC1(C)C2C(C)=C3)C2C1C3=O

>  <Molecular Formula>
C15H22O

$$$$
3-phenyl-2-propenal
Actelion Java MolfileCreator 2.0

  0  0  0  0  0  0              0 V3000
M  V30 BEGIN CTAB
M  V30 COUNTS 10 10 0 0 0
M  V30 BEGIN ATOM
M  V30 1 O 0.0 0.0 0.0 0
M  V30 2 C 1.2949 -0.7128 0.0 0
M  V30 3 C 1.2474 -2.2097 0.0 0
M  V30 4 C 2.5424 -2.9107 0.0 0
M  V30 5 C 2.4948 -4.4076 0.0 0
M  V30 6 C 3.7898 -5.1086 0.0 0
M  V30 7 C 1.1048 -5.1086 0.0 0
M  V30 8 C 3.7423 -6.6055 0.0 0
M  V30 9 C 1.0573 -6.6055 0.0 0
M  V30 10 C 2.3523 -7.3064 0.0 0
M  V30 END ATOM
M  V30 BEGIN BOND
M  V30 1 2 1 2
M  V30 2 1 2 3
M  V30 3 2 3 4 CFG=2
M  V30 4 1 4 5
M  V30 5 2 5 6
M  V30 6 1 5 7
M  V30 7 1 6 8
M  V30 8 2 7 9
M  V30 9 2 8 10
M  V30 10 1 9 10
M  V30 END BOND
M  V30 END CTAB
M  END
>  <Molecule Name>
3-phenyl-2-propenal

>  <Molecule Name 2>
3-phenyl-2-propenal

>  <Database>
Essential Oil Database

>  <InChI>
InChI=1S/C9H8O/c10-8-4-7-9-5-2-1-3-6-9/h1-8H

>  <InChI-Key>
KJPRLNWUNMBNBZ-UHFFFAOYSA-N

>  <Smiles>
O=CC=Cc1ccccc1

>  <Molecular Formula>
C9H8O

$$$$
benzofuran
Actelion Java MolfileCreator 2.0

  0  0  0  0  0  0              0 V3000
M  V30 BEGIN CTAB
M  V30 COUNTS 9 10 0 0 0
M  V30 BEGIN ATOM
M  V30 1 O 0.0 0.0 0.0 0
M  V30 2 C 1.3844 0.5221 0.0 0
M  V30 3 C -0.9229 1.2629 0.0 0
M  V30 4 C 1.3358 2.0766 0.0 0
M  V30 5 C 2.6352 -0.1943 0.0 0
M  V30 6 C -0.0971 2.5259 0.0 0
M  V30 7 C 2.5866 2.8659 0.0 0
M  V30 8 C 3.886 0.595 0.0 0
M  V30 9 C 3.8374 2.1373 0.0 0
M  V30 END ATOM
M  V30 BEGIN BOND
M  V30 1 1 1 2
M  V30 2 1 1 3
M  V30 3 2 2 4
M  V30 4 1 2 5
M  V30 5 2 3 6
M  V30 6 1 4 7
M  V30 7 2 5 8
M  V30 8 2 7 9
M  V30 9 1 4 6
M  V30 10 1 8 9
M  V30 END BOND
M  V30 END CTAB
M  END
>  <Molecule Name>
benzofuran

>  <Molecule Name 2>
benzofuran

>  <Database>
Essential Oil Database

>  <InChI>
InChI=1S/C8H6O/c1-2-4-8-7(3-1)5-6-9-8/h1-6H

>  <InChI-Key>
IANQTJSKSUMEQM-UHFFFAOYSA-N

>  <Smiles>
c1c[o]c2c1cccc2

>  <Molecular Formula>
C8H6O

$$$$
2-hydroxy-4-methoxybenzaldehyde
Actelion Java MolfileCreator 2.0

  0  0  0  0  0  0              0 V3000
M  V30 BEGIN CTAB
M  V30 COUNTS 11 11 0 0 0
M  V30 BEGIN ATOM
M  V30 1 O 0.0 0.0 0.0 0
M  V30 2 C 1.2924 -0.6995 0.0 0
M  V30 3 C 1.2449 -2.1935 0.0 0
M  V30 4 C 2.5374 -2.8931 0.0 0
M  V30 5 C -0.1422 -2.8931 0.0 0
M  V30 6 O 3.8298 -2.0749 0.0 0
M  V30 7 C 2.4899 -4.3871 0.0 0
M  V30 8 C -0.1897 -4.3871 0.0 0
M  V30 9 C 1.1027 -5.0866 0.0 0
M  V30 10 O 1.0552 -6.5806 0.0 0
M  V30 11 C 2.3476 -7.292 0.0 0
M  V30 END ATOM
M  V30 BEGIN BOND
M  V30 1 2 1 2
M  V30 2 1 2 3
M  V30 3 2 3 4
M  V30 4 1 3 5
M  V30 5 1 4 6
M  V30 6 1 4 7
M  V30 7 2 5 8
M  V30 8 2 7 9
M  V30 9 1 9 10
M  V30 10 1 10 11
M  V30 11 1 8 9
M  V30 END BOND
M  V30 END CTAB
M  END
>  <Molecule Name>
2-hydroxy-4-methoxybenzaldehyde

>  <Molecule Name 2>
2-hydroxy-4-methoxybenzaldehyde

>  <Database>
Essential Oil Database

>  <InChI>
InChI=1S/C8H8O3/c1-11-7-3-2-6(5-9)8(10)4-7/h2-5,10H,1H3

>  <InChI-Key>
WZUODJNEIXSNEU-UHFFFAOYSA-N

>  <Smiles>
COc1cc(O)c(C=O)cc1

>  <Molecular Formula>
C8H8O3

$$$$
2-methoxyphenol
Actelion Java MolfileCreator 2.0

  0  0  0  0  0  0              0 V3000
M  V30 BEGIN CTAB
M  V30 COUNTS 9 9 0 0 0
M  V30 BEGIN ATOM
M  V30 1 O 0.0 0.0 0.0 0
M  V30 2 C -1.3265 -0.705 0.0 0
M  V30 3 C -0.0478 1.5296 0.0 0
M  V30 4 C -2.653 0.0597 0.0 0
M  V30 5 C -1.3743 -2.1391 0.0 0
M  V30 6 O -2.7008 1.5894 0.0 0
M  V30 7 C -3.9796 -0.6453 0.0 0
M  V30 8 C -2.7008 -2.8442 0.0 0
M  V30 9 C -4.0274 -2.0794 0.0 0
M  V30 END ATOM
M  V30 BEGIN BOND
M  V30 1 1 1 2
M  V30 2 1 1 3
M  V30 3 2 2 4
M  V30 4 1 2 5
M  V30 5 1 4 6
M  V30 6 1 4 7
M  V30 7 2 5 8
M  V30 8 2 7 9
M  V30 9 1 8 9
M  V30 END BOND
M  V30 END CTAB
M  END
>  <Molecule Name>
2-methoxyphenol

>  <Molecule Name 2>
2-methoxyphenol

>  <Database>
Essential Oil Database

>  <InChI>
InChI=1S/C7H8O2/c1-9-7-5-3-2-4-6(7)8/h2-5,8H,1H3

>  <InChI-Key>
LHGVFZTZFXWLCP-UHFFFAOYSA-N

>  <Smiles>
COc(cccc1)c1O

>  <Molecular Formula>
C7H8O2

$$$$
3-methoxyphenol
Actelion Java MolfileCreator 2.0

  0  0  0  0  0  0              0 V3000
M  V30 BEGIN CTAB
M  V30 COUNTS 9 9 0 0 0
M  V30 BEGIN ATOM
M  V30 1 O 0.0 0.0 0.0 0
M  V30 2 C -1.3118 0.7563 0.0 0
M  V30 3 C 1.2173 0.7563 0.0 0
M  V30 4 C -1.3591 2.2691 0.0 0
M  V30 5 C -2.6237 0.059 0.0 0
M  V30 6 C -2.671 3.0374 0.0 0
M  V30 7 C -3.9356 0.8273 0.0 0
M  V30 8 O -2.7183 4.5502 0.0 0
M  V30 9 C -3.9829 2.3401 0.0 0
M  V30 END ATOM
M  V30 BEGIN BOND
M  V30 1 1 1 2
M  V30 2 1 1 3
M  V30 3 2 2 4
M  V30 4 1 2 5
M  V30 5 1 4 6
M  V30 6 2 5 7
M  V30 7 1 6 8
M  V30 8 2 6 9
M  V30 9 1 7 9
M  V30 END BOND
M  V30 END CTAB
M  END
>  <Molecule Name>
3-methoxyphenol

>  <Molecule Name 2>
3-methoxyphenol

>  <Database>
Essential Oil Database

>  <InChI>
InChI=1S/C7H8O2/c1-9-7-4-2-3-6(8)5-7/h2-5,8H,1H3

>  <InChI-Key>
ASHGTJPOSUFTGB-UHFFFAOYSA-N

>  <Smiles>
COc1cc(O)ccc1

>  <Molecular Formula>
C7H8O2

$$$$
amyl cinnamate
Actelion Java MolfileCreator 2.0

  0  0  0  0  0  0              0 V3000
M  V30 BEGIN CTAB
M  V30 COUNTS 16 16 0 0 0
M  V30 BEGIN ATOM
M  V30 1 O 0.0 0.0 0.0 0
M  V30 2 C -0.0463 -1.4592 0.0 0
M  V30 3 O 1.216 -2.1656 0.0 0
M  V30 4 C -1.4013 -2.1656 0.0 0
M  V30 5 C 2.4783 -1.3434 0.0 0
M  V30 6 C -1.4476 -3.6249 0.0 0
M  V30 7 C 3.7407 -2.0498 0.0 0
M  V30 8 C -2.8026 -4.3081 0.0 0
M  V30 9 C 5.003 -1.2276 0.0 0
M  V30 10 C -2.8489 -5.7674 0.0 0
M  V30 11 C -4.1576 -3.4975 0.0 0
M  V30 12 C 6.2654 -1.934 0.0 0
M  V30 13 C -4.2039 -6.497 0.0 0
M  V30 14 C -5.5126 -4.1808 0.0 0
M  V30 15 C 7.5277 -1.1117 0.0 0
M  V30 16 C -5.5589 -5.6747 0.0 0
M  V30 END ATOM
M  V30 BEGIN BOND
M  V30 1 2 1 2
M  V30 2 1 2 3
M  V30 3 1 2 4
M  V30 4 1 3 5
M  V30 5 2 4 6
M  V30 6 1 5 7
M  V30 7 1 6 8
M  V30 8 1 7 9
M  V30 9 2 8 10
M  V30 10 1 8 11
M  V30 11 1 9 12
M  V30 12 1 10 13
M  V30 13 2 11 14
M  V30 14 1 12 15
M  V30 15 2 13 16
M  V30 16 1 14 16
M  V30 END BOND
M  V30 END CTAB
M  END
>  <Molecule Name>
amyl cinnamate

>  <Molecule Name 2>
amyl cinnamate

>  <Database>
Essential Oil Database

>  <InChI>
InChI=1S/C14H18O2/c1-2-3-7-12-16-14(15)11-10-13-8-5-4-6-9-13/h4-6,8-11H,2-3,7,12H2,1H3/b11-10+

>  <InChI-Key>
QDRJCWZGTMRXCL-ZHACJKMWSA-N

>  <Smiles>
CCCCCOC(/C=C/c1ccccc1)=O

>  <Molecular Formula>
C14H18O2

$$$$
(e,z)-2,6-nonadienal
Actelion Java MolfileCreator 2.0

  0  0  0  0  0  0              0 V3000
M  V30 BEGIN CTAB
M  V30 COUNTS 10 9 0 0 0
M  V30 BEGIN ATOM
M  V30 1 O 0.0 0.0 0.0 0
M  V30 2 C 0.704 1.3245 0.0 0
M  V30 3 C 2.1359 1.3722 0.0 0
M  V30 4 C 2.84 2.6968 0.0 0
M  V30 5 C 2.0763 4.0213 0.0 0
M  V30 6 C 2.7803 5.3459 0.0 0
M  V30 7 C 2.0047 6.6704 0.0 0
M  V30 8 C 0.4773 6.7181 0.0 0
M  V30 9 C -0.2863 5.489 0.0 0
M  V30 10 C -1.8137 5.5368 0.0 0
M  V30 END ATOM
M  V30 BEGIN BOND
M  V30 1 2 1 2
M  V30 2 1 2 3
M  V30 3 2 3 4
M  V30 4 1 4 5
M  V30 5 1 5 6
M  V30 6 1 6 7
M  V30 7 2 7 8
M  V30 8 1 8 9
M  V30 9 1 9 10
M  V30 END BOND
M  V30 END CTAB
M  END
>  <Molecule Name>
(e,z)-2,6-nonadienal

>  <Molecule Name 2>
(e,z)-2,6-nonadienal

>  <Database>
Essential Oil Database

>  <InChI>
InChI=1S/C9H14O/c1-2-3-4-5-6-7-8-9-10/h3-4,7-9H,2,5-6H2,1H3/b4-3-,8-7-

>  <InChI-Key>
HZYHMHHBBBSGHB-KPDBFRNYSA-N

>  <Smiles>
CC/C=C\CC/C=C\C=O

>  <Molecular Formula>
C9H14O

$$$$
hydroquinone
Actelion Java MolfileCreator 2.0

  0  0  0  0  0  0              0 V3000
M  V30 BEGIN CTAB
M  V30 COUNTS 8 8 0 0 0
M  V30 BEGIN ATOM
M  V30 1 O 0.0 0.0 0.0 0
M  V30 2 C -0.0473 -1.4908 0.0 0
M  V30 3 C 1.2423 -2.1888 0.0 0
M  V30 4 C -1.4316 -2.1888 0.0 0
M  V30 5 C 1.195 -3.6797 0.0 0
M  V30 6 C -1.4789 -3.6797 0.0 0
M  V30 7 C -0.1893 -4.3777 0.0 0
M  V30 8 O -0.2366 -5.8686 0.0 0
M  V30 END ATOM
M  V30 BEGIN BOND
M  V30 1 1 1 2
M  V30 2 2 2 3
M  V30 3 1 2 4
M  V30 4 1 3 5
M  V30 5 2 4 6
M  V30 6 2 5 7
M  V30 7 1 7 8
M  V30 8 1 6 7
M  V30 END BOND
M  V30 END CTAB
M  END
>  <Molecule Name>
hydroquinone

>  <Molecule Name 2>
hydroquinone

>  <Database>
Essential Oil Database

>  <InChI>
InChI=1S/C6H6O2/c7-5-1-2-6(8)4-3-5/h1-4,7-8H

>  <InChI-Key>
QIGBRXMKCJKVMJ-UHFFFAOYSA-N

>  <Smiles>
Oc(cc1)ccc1O

>  <Molecular Formula>
C6H6O2

$$$$
isovanillin
Actelion Java MolfileCreator 2.0

  0  0  0  0  0  0              0 V3000
M  V30 BEGIN CTAB
M  V30 COUNTS 11 11 0 0 0
M  V30 BEGIN ATOM
M  V30 1 O 0.0 0.0 0.0 0
M  V30 2 C -1.3096 0.755 0.0 0
M  V30 3 C -1.3568 2.2652 0.0 0
M  V30 4 C -2.6664 3.0321 0.0 0
M  V30 5 C -0.1415 3.0321 0.0 0
M  V30 6 C -2.7136 4.5423 0.0 0
M  V30 7 C -0.1887 4.5423 0.0 0
M  V30 8 O -4.0232 5.3092 0.0 0
M  V30 9 C -1.4983 5.3092 0.0 0
M  V30 10 O -1.5455 6.8194 0.0 0
M  V30 11 C -2.8552 7.5863 0.0 0
M  V30 END ATOM
M  V30 BEGIN BOND
M  V30 1 2 1 2
M  V30 2 1 2 3
M  V30 3 2 3 4
M  V30 4 1 3 5
M  V30 5 1 4 6
M  V30 6 2 5 7
M  V30 7 1 6 8
M  V30 8 2 6 9
M  V30 9 1 9 10
M  V30 10 1 10 11
M  V30 11 1 7 9
M  V30 END BOND
M  V30 END CTAB
M  END
>  <Molecule Name>
isovanillin

>  <Molecule Name 2>
isovanillin

>  <Database>
Essential Oil Database

>  <InChI>
InChI=1S/C8H8O3/c1-11-8-3-2-6(5-9)4-7(8)10/h2-5,10H,1H3

>  <InChI-Key>
JVTZFYYHCGSXJV-UHFFFAOYSA-N

>  <Smiles>
COc(ccc(C=O)c1)c1O

>  <Molecular Formula>
C8H8O3

$$$$
methyl-2-hydroxy-4-methoxybenzoate
Actelion Java MolfileCreator 2.0

  0  0  0  0  0  0              0 V3000
M  V30 BEGIN CTAB
M  V30 COUNTS 13 13 0 0 0
M  V30 BEGIN ATOM
M  V30 1 O 0.0 0.0 0.0 0
M  V30 2 C -1.36 -0.7229 0.0 0
M  V30 3 O -2.7201 0.0612 0.0 0
M  V30 4 C -1.409 -2.1932 0.0 0
M  V30 5 C -2.7691 1.6296 0.0 0
M  V30 6 C -0.147 -2.9162 0.0 0
M  V30 7 C -2.7691 -2.9162 0.0 0
M  V30 8 O 1.115 -2.132 0.0 0
M  V30 9 C -0.196 -4.3865 0.0 0
M  V30 10 C -2.8181 -4.3865 0.0 0
M  V30 11 C -1.5561 -5.1095 0.0 0
M  V30 12 O -1.6051 -6.5798 0.0 0
M  V30 13 C -0.343 -7.315 0.0 0
M  V30 END ATOM
M  V30 BEGIN BOND
M  V30 1 2 1 2
M  V30 2 1 2 3
M  V30 3 1 2 4
M  V30 4 1 3 5
M  V30 5 2 4 6
M  V30 6 1 4 7
M  V30 7 1 6 8
M  V30 8 1 6 9
M  V30 9 2 7 10
M  V30 10 2 9 11
M  V30 11 1 11 12
M  V30 12 1 12 13
M  V30 13 1 10 11
M  V30 END BOND
M  V30 END CTAB
M  END
>  <Molecule Name>
methyl-2-hydroxy-4-methoxybenzoate

>  <Molecule Name 2>
methyl-2-hydroxy-4-methoxybenzoate

>  <Database>
Essential Oil Database

>  <InChI>
InChI=1S/C9H10O4/c1-12-6-3-4-7(8(10)5-6)9(11)13-2/h3-5,10H,1-2H3

>  <InChI-Key>
ZICRWXFGZCVTBZ-UHFFFAOYSA-N

>  <Smiles>
COC(c(ccc(OC)c1)c1O)=O

>  <Molecular Formula>
C9H10O4

$$$$
alpha-cubebene
Actelion Java MolfileCreator 2.0

  0  0  0  0  0  0              0 V3000
M  V30 BEGIN CTAB
M  V30 COUNTS 15 17 0 0 0
M  V30 BEGIN ATOM
M  V30 1 C 0.0 0.0 0.0 0
M  V30 2 C -0.1503 -1.4575 0.0 0
M  V30 3 C 1.4113 0.4395 0.0 0 CFG=1
M  V30 4 C -1.2609 1.0526 0.0 0
M  V30 5 C 1.2146 -1.9203 0.0 0
M  V30 6 C 2.1979 -0.7866 0.0 0
M  V30 7 C 2.8688 0.5784 0.0 0 CFG=2
M  V30 8 C 2.9845 -2.0128 0.0 0 CFG=1
M  V30 9 C 4.3264 0.7172 0.0 0 CFG=2
M  V30 10 C 4.4421 -1.874 0.0 0
M  V30 11 C 2.2326 -3.3084 0.0 0
M  V30 12 C 4.928 2.1516 0.0 0
M  V30 13 C 5.113 -0.5089 0.0 0
M  V30 14 C 4.0025 3.5166 0.0 0
M  V30 15 C 6.3855 2.2904 0.0 0
M  V30 END ATOM
M  V30 BEGIN BOND
M  V30 1 2 1 2
M  V30 2 1 3 1 CFG=3
M  V30 3 1 1 4
M  V30 4 1 2 5
M  V30 5 1 3 6
M  V30 6 1 7 3 CFG=1
M  V30 7 1 6 8
M  V30 8 1 7 9
M  V30 9 1 8 10
M  V30 10 1 8 11 CFG=1
M  V30 11 1 9 12 CFG=3
M  V30 12 1 9 13
M  V30 13 1 12 14
M  V30 14 1 12 15
M  V30 15 1 5 6
M  V30 16 1 6 7
M  V30 17 1 10 13
M  V30 END BOND
M  V30 BEGIN COLLECTION
M  V30 MDLV30/STERAC1 ATOMS=(4 3 7 8 9)
M  V30 END COLLECTION
M  V30 END CTAB
M  END
>  <Molecule Name>
alpha-cubebene

>  <Molecule Name 2>
alpha-cubebene

>  <Database>
Essential Oil Database

>  <InChI>
InChI=1S/C15H24/c1-9(2)12-6-5-11(4)15-8-7-10(3)13(15)14(12)15/h7,9,11-14H,5-6,8H2,1-4H3/t11-,12+,13-,14-,15?/m1/s1

>  <InChI-Key>
XUEHVOLRMXNRKQ-PFNKYVCDSA-N

>  <Smiles>
CC(C)[C@H]1[C@H]([C@H]2C(C)=CC3)C23[C@H](C)CC1

>  <Molecular Formula>
C15H24

$$$$
alpha-selinene
Actelion Java MolfileCreator 2.0

  0  0  0  0  0  0              0 V3000
M  V30 BEGIN CTAB
M  V30 COUNTS 15 16 0 0 0
M  V30 BEGIN ATOM
M  V30 1 C 0.0 0.0 0.0 0
M  V30 2 C 1.1881 0.7801 0.0 0
M  V30 3 C -1.3322 0.7801 0.0 0 CFG=1
M  V30 4 C -0.072 -1.3922 0.0 0
M  V30 5 C 1.1161 2.3163 0.0 0
M  V30 6 C -1.4042 2.3163 0.0 0 CFG=2
M  V30 7 C -2.6644 0.096 0.0 0
M  V30 8 C -0.216 3.0964 0.0 0
M  V30 9 C -2.7364 3.0964 0.0 0
M  V30 10 C -1.4762 3.8525 0.0 0
M  V30 11 C -3.9966 0.8761 0.0 0 CFG=1
M  V30 12 C -4.0686 2.4123 0.0 0
M  V30 13 C -5.3288 0.18 0.0 0
M  V30 14 C -6.661 0.9601 0.0 0
M  V30 15 C -5.4008 -1.2121 0.0 0
M  V30 END ATOM
M  V30 BEGIN BOND
M  V30 1 2 1 2
M  V30 2 1 1 3
M  V30 3 1 1 4
M  V30 4 1 2 5
M  V30 5 1 3 6
M  V30 6 1 3 7 CFG=3
M  V30 7 1 5 8
M  V30 8 1 6 9
M  V30 9 1 6 10 CFG=3
M  V30 10 1 7 11
M  V30 11 1 9 12
M  V30 12 1 11 13 CFG=3
M  V30 13 2 13 14
M  V30 14 1 13 15
M  V30 15 1 6 8
M  V30 16 1 11 12
M  V30 END BOND
M  V30 BEGIN COLLECTION
M  V30 MDLV30/STERAC1 ATOMS=(3 3 6 11)
M  V30 END COLLECTION
M  V30 END CTAB
M  END
>  <Molecule Name>
alpha-selinene

>  <Molecule Name 2>
alpha-selinene

>  <Database>
Essential Oil Database

>  <InChI>
InChI=1S/C15H24/c1-11(2)13-7-9-15(4)8-5-6-12(3)14(15)10-13/h6,13-14H,1,5,7-10H2,2-4H3/t13-,14+,15-/m1/s1

>  <InChI-Key>
OZQAPQSEYFAMCY-QLFBSQMISA-N

>  <Smiles>
C[C@@]1(CC[C@H](C2)C(C)=C)[C@@H]2C(C)=CCC1

>  <Molecular Formula>
C15H24

$$$$
alpha-ylangene
Actelion Java MolfileCreator 2.0

  0  0  0  0  0  0              0 V3000
M  V30 BEGIN CTAB
M  V30 COUNTS 15 17 0 0 0
M  V30 BEGIN ATOM
M  V30 1 C 0.0 0.0 0.0 0
M  V30 2 C 1.0418 -0.9916 0.0 0
M  V30 3 C -1.2678 -1.0795 0.0 0 CFG=1
M  V30 4 C -0.0753 1.544 0.0 0
M  V30 5 C 0.3891 -2.2469 0.0 0
M  V30 6 C -1.8955 -0.2636 0.0 0 CFG=2
M  V30 7 C -2.3348 -2.3097 0.0 0
M  V30 8 C -1.2176 -2.0084 0.0 0 CFG=2
M  V30 9 C -3.4018 0.3891 0.0 0
M  V30 10 C -1.0921 0.9665 0.0 0
M  V30 11 C -3.8537 -2.1465 0.0 0 CFG=2
M  V30 12 C -4.4688 -0.6402 0.0 0
M  V30 13 C -4.7826 -3.2386 0.0 0
M  V30 14 C -4.2429 -4.5065 0.0 0
M  V30 15 C -6.3267 -2.9876 0.0 0
M  V30 END ATOM
M  V30 BEGIN BOND
M  V30 1 2 1 2
M  V30 2 1 3 1 CFG=3
M  V30 3 1 1 4
M  V30 4 1 2 5
M  V30 5 1 3 6
M  V30 6 1 3 7
M  V30 7 1 8 5 CFG=1
M  V30 8 1 6 9
M  V30 9 1 6 10 CFG=1
M  V30 10 1 7 11
M  V30 11 1 9 12
M  V30 12 1 11 13 CFG=1
M  V30 13 1 13 14
M  V30 14 1 13 15
M  V30 15 1 6 8
M  V30 16 1 7 8
M  V30 17 1 11 12
M  V30 END BOND
M  V30 BEGIN COLLECTION
M  V30 MDLV30/STERAC1 ATOMS=(4 3 6 8 11)
M  V30 END COLLECTION
M  V30 END CTAB
M  END
>  <Molecule Name>
alpha-ylangene

>  <Molecule Name 2>
alpha-ylangene

>  <Database>
Essential Oil Database

>  <InChI>
InChI=1S/C15H24/c1-9(2)11-7-8-15(4)12-6-5-10(3)14(15)13(11)12/h5,9,11-14H,6-8H2,1-4H3/t11-,12+,13?,14-,15+/m1/s1

>  <InChI-Key>
VLXDPFLIRFYIME-WQGXVZNYSA-N

>  <Smiles>
CC(C)[C@@H]1C2[C@H]3C(C)=CC[C@@H]2[C@]3(C)CC1

>  <Molecular Formula>
C15H24

$$$$
beta-elemene
Actelion Java MolfileCreator 2.0

  0  0  0  0  0  0              0 V3000
M  V30 BEGIN CTAB
M  V30 COUNTS 15 15 0 0 0
M  V30 BEGIN ATOM
M  V30 1 C 0.0 0.0 0.0 0
M  V30 2 C -0.0733 1.5639 0.0 0
M  V30 3 C -1.3562 -0.6964 0.0 0 CFG=2
M  V30 4 C 1.2096 -0.6964 0.0 0
M  V30 5 C -2.7124 0.0977 0.0 0 CFG=1
M  V30 6 C -1.4295 -2.1137 0.0 0
M  V30 7 C -1.8449 1.2951 0.0 0
M  V30 8 C -4.0687 -0.5987 0.0 0
M  V30 9 C -3.7266 1.2951 0.0 0
M  V30 10 C -2.7857 -2.8102 0.0 0 CFG=2
M  V30 11 C -2.4436 2.7613 0.0 0
M  V30 12 C -4.142 -2.016 0.0 0
M  V30 13 C -2.8591 -4.2275 0.0 0
M  V30 14 C -4.2153 -4.9362 0.0 0
M  V30 15 C -1.6494 -4.9362 0.0 0
M  V30 END ATOM
M  V30 BEGIN BOND
M  V30 1 2 1 2
M  V30 2 1 3 1 CFG=1
M  V30 3 1 1 4
M  V30 4 1 3 5
M  V30 5 1 3 6
M  V30 6 1 5 7
M  V30 7 1 5 8
M  V30 8 1 5 9 CFG=1
M  V30 9 1 6 10
M  V30 10 2 7 11
M  V30 11 1 8 12
M  V30 12 1 10 13 CFG=1
M  V30 13 2 13 14
M  V30 14 1 13 15
M  V30 15 1 10 12
M  V30 END BOND
M  V30 BEGIN COLLECTION
M  V30 MDLV30/STERAC1 ATOMS=(3 3 5 10)
M  V30 END COLLECTION
M  V30 END CTAB
M  END
>  <Molecule Name>
beta-elemene

>  <Molecule Name 2>
beta-elemene

>  <Database>
Essential Oil Database

>  <InChI>
InChI=1S/C15H24/c1-7-15(6)9-8-13(11(2)3)10-14(15)12(4)5/h7,13-14H,1-2,4,8-10H2,3,5-6H3/t13-,14+,15-/m0/s1

>  <InChI-Key>
OPFTUNCRGUEPRZ-ZNMIVQPWSA-N

>  <Smiles>
C[C@](CC[C@@H](C1)C(C)=C)([C@H]1C(C)=C)C=C

>  <Molecular Formula>
C15H24

$$$$
delta-cadinene
Actelion Java MolfileCreator 2.0

  0  0  0  0  0  0              0 V3000
M  V30 BEGIN CTAB
M  V30 COUNTS 15 16 0 0 0
M  V30 BEGIN ATOM
M  V30 1 C 0.0 0.0 0.0 0
M  V30 2 C -1.3878 0.8001 0.0 0
M  V30 3 C -0.075 -1.4503 0.0 0 CFG=2
M  V30 4 C 1.2377 0.8001 0.0 0
M  V30 5 C -2.7756 0.0875 0.0 0
M  V30 6 C -1.4628 2.4005 0.0 0
M  V30 7 C 1.1627 -2.1755 0.0 0
M  V30 8 C -1.4628 -2.1755 0.0 0 CFG=2
M  V30 9 C 2.4755 0.0875 0.0 0
M  V30 10 C -2.8506 -1.3628 0.0 0
M  V30 11 C 2.4005 -1.3628 0.0 0
M  V30 12 C -1.5378 -3.6258 0.0 0
M  V30 13 C 3.6383 -2.0879 0.0 0
M  V30 14 C -0.3 -4.351 0.0 0
M  V30 15 C -2.9256 -4.351 0.0 0
M  V30 END ATOM
M  V30 BEGIN BOND
M  V30 1 2 1 2
M  V30 2 1 1 3
M  V30 3 1 1 4
M  V30 4 1 2 5
M  V30 5 1 2 6
M  V30 6 1 3 7 CFG=3
M  V30 7 1 3 8
M  V30 8 1 4 9
M  V30 9 1 5 10
M  V30 10 2 7 11
M  V30 11 1 8 12 CFG=1
M  V30 12 1 11 13
M  V30 13 1 12 14
M  V30 14 1 12 15
M  V30 15 1 8 10
M  V30 16 1 9 11
M  V30 END BOND
M  V30 BEGIN COLLECTION
M  V30 MDLV30/STERAC1 ATOMS=(2 3 8)
M  V30 END COLLECTION
M  V30 END CTAB
M  END
>  <Molecule Name>
delta-cadinene

>  <Molecule Name 2>
delta-cadinene

>  <Database>
Essential Oil Database

>  <InChI>
InChI=1S/C15H24/c1-10(2)13-8-6-12(4)14-7-5-11(3)9-15(13)14/h9-10,13,15H,5-8H2,1-4H3/t13-,15-/m1/s1

>  <InChI-Key>
FUCYIEXQVQJBKY-UKRRQHHQSA-N

>  <Smiles>
CC(C)[C@@H]1[C@@H](C=C(C)CC2)C2=C(C)CC1

>  <Molecular Formula>
C15H24

$$$$
spathulenol
Actelion Java MolfileCreator 2.0

  0  0  0  0  0  0              0 V3000
M  V30 BEGIN CTAB
M  V30 COUNTS 16 18 0 0 0
M  V30 BEGIN ATOM
M  V30 1 O 0.0 0.0 0.0 0
M  V30 2 C 1.149 0.8587 0.0 0 CFG=2
M  V30 3 C 0.1572 2.0561 0.0 0 CFG=2
M  V30 4 C 2.4432 1.4876 0.0 0
M  V30 5 C 1.79 -0.3749 0.0 0
M  V30 6 C 0.895 3.3624 0.0 0 CFG=1
M  V30 7 C -1.3909 1.9714 0.0 0 CFG=2
M  V30 8 C 2.2738 3.0358 0.0 0
M  V30 9 C 0.3265 4.8259 0.0 0
M  V30 10 C -2.8907 1.657 0.0 0
M  V30 11 C -2.4794 3.0842 0.0 0 CFG=2
M  V30 12 C 1.2941 5.9144 0.0 0
M  V30 13 C -1.1369 5.4185 0.0 0
M  V30 14 C -4.4388 1.8747 0.0 0
M  V30 15 C -2.8423 0.2539 0.0 0
M  V30 16 C -2.3706 4.6203 0.0 0
M  V30 END ATOM
M  V30 BEGIN BOND
M  V30 1 1 2 1 CFG=3
M  V30 2 1 2 3
M  V30 3 1 2 4
M  V30 4 1 2 5
M  V30 5 1 3 6
M  V30 6 1 3 7 CFG=1
M  V30 7 1 4 8
M  V30 8 1 6 9 CFG=3
M  V30 9 1 7 10 CFG=3
M  V30 10 1 7 11
M  V30 11 2 9 12
M  V30 12 1 9 13
M  V30 13 1 10 14
M  V30 14 1 10 15
M  V30 15 1 11 16 CFG=3
M  V30 16 1 6 8
M  V30 17 1 10 11
M  V30 18 1 13 16
M  V30 END BOND
M  V30 BEGIN COLLECTION
M  V30 MDLV30/STERAC1 ATOMS=(5 2 3 6 7 11)
M  V30 END COLLECTION
M  V30 END CTAB
M  END
>  <Molecule Name>
spathulenol

>  <Molecule Name 2>
spathulenol

>  <Database>
Essential Oil Database

>  <InChI>
InChI=1S/C15H24O/c1-9-5-6-11-13(14(11,2)3)12-10(9)7-8-15(12,4)16/h10-13,16H,1,5-8H2,2-4H3/t10-,11+,12+,13+,15-/m0/s1

>  <InChI-Key>
FRMCCTDTYSRUBE-BGPZULBFSA-N

>  <Smiles>
CC(C)([C@@H]1CCC([C@@H]2CC3)=C)[C@H]1[C@@H]2[C@@]3(C)O

>  <Molecular Formula>
C15H24O

$$$$
valencene
Actelion Java MolfileCreator 2.0

  0  0  0  0  0  0              0 V3000
M  V30 BEGIN CTAB
M  V30 COUNTS 15 16 0 0 0
M  V30 BEGIN ATOM
M  V30 1 C 0.0 0.0 0.0 0
M  V30 2 C -1.3977 0.8548 0.0 0
M  V30 3 C -0.0693 -1.4555 0.0 0 CFG=2
M  V30 4 C 1.2591 0.8548 0.0 0
M  V30 5 C -2.7955 0.1963 0.0 0
M  V30 6 C -1.467 -2.137 0.0 0 CFG=1
M  V30 7 C 1.1898 -2.137 0.0 0
M  V30 8 C -0.1386 -2.911 0.0 0
M  V30 9 C 2.5182 0.1963 0.0 0
M  V30 10 C -2.8648 -1.2591 0.0 0
M  V30 11 C -1.5363 -3.5925 0.0 0
M  V30 12 C 2.4489 -1.2822 0.0 0 CFG=1
M  V30 13 C 3.7081 -1.9522 0.0 0
M  V30 14 C 3.6388 -3.4077 0.0 0
M  V30 15 C 4.9672 -1.0974 0.0 0
M  V30 END ATOM
M  V30 BEGIN BOND
M  V30 1 2 1 2
M  V30 2 1 1 3
M  V30 3 1 1 4
M  V30 4 1 2 5
M  V30 5 1 3 6
M  V30 6 1 3 7
M  V30 7 1 3 8 CFG=3
M  V30 8 1 4 9
M  V30 9 1 5 10
M  V30 10 1 6 11 CFG=3
M  V30 11 1 7 12
M  V30 12 1 12 13 CFG=1
M  V30 13 2 13 14
M  V30 14 1 13 15
M  V30 15 1 6 10
M  V30 16 1 9 12
M  V30 END BOND
M  V30 BEGIN COLLECTION
M  V30 MDLV30/STERAC1 ATOMS=(3 3 6 12)
M  V30 END COLLECTION
M  V30 END CTAB
M  END
>  <Molecule Name>
valencene

>  <Molecule Name 2>
valencene

>  <Database>
Essential Oil Database

>  <InChI>
InChI=1S/C15H24/c1-11(2)13-8-9-14-7-5-6-12(3)15(14,4)10-13/h7,12-13H,1,5-6,8-10H2,2-4H3/t12-,13-,15+/m1/s1

>  <InChI-Key>
QEBNYNLSCGVZOH-NFAWXSAZSA-N

>  <Smiles>
C[C@H]1[C@](C)(C[C@@H](CC2)C(C)=C)C2=CCC1

>  <Molecular Formula>
C15H24

$$$$
viridiflorene
Actelion Java MolfileCreator 2.0

  0  0  0  0  0  0              0 V3000
M  V30 BEGIN CTAB
M  V30 COUNTS 15 17 0 0 0
M  V30 BEGIN ATOM
M  V30 1 C 0.0 0.0 0.0 0
M  V30 2 C -0.5769 -1.387 0.0 0
M  V30 3 C 1.387 0.6014 0.0 0
M  V30 4 C -1.1783 1.1538 0.0 0
M  V30 5 C 0.1841 -2.6144 0.0 0 CFG=2
M  V30 6 C -2.148 -1.7061 0.0 0
M  V30 7 C 2.6267 -0.1472 0.0 0
M  V30 8 C -0.8714 -3.7314 0.0 0 CFG=2
M  V30 9 C 1.657 -2.7003 0.0 0 CFG=2
M  V30 10 C -2.3198 -3.1791 0.0 0
M  V30 11 C 2.7372 -1.6079 0.0 0 CFG=1
M  V30 12 C -0.5523 -5.1553 0.0 0
M  V30 13 C 3.0809 -3.0195 0.0 0
M  V30 14 C 3.2895 -4.4679 0.0 0
M  V30 15 C 4.5292 -3.2036 0.0 0
M  V30 END ATOM
M  V30 BEGIN BOND
M  V30 1 2 1 2
M  V30 2 1 1 3
M  V30 3 1 1 4
M  V30 4 1 5 2 CFG=1
M  V30 5 1 2 6
M  V30 6 1 3 7
M  V30 7 1 5 8
M  V30 8 1 5 9
M  V30 9 1 6 10
M  V30 10 1 11 7 CFG=3
M  V30 11 1 8 12 CFG=1
M  V30 12 1 9 13 CFG=3
M  V30 13 1 13 14
M  V30 14 1 13 15
M  V30 15 1 8 10
M  V30 16 1 9 11
M  V30 17 1 11 13
M  V30 END BOND
M  V30 BEGIN COLLECTION
M  V30 MDLV30/STERAC1 ATOMS=(4 5 8 9 11)
M  V30 END COLLECTION
M  V30 END CTAB
M  END
>  <Molecule Name>
viridiflorene

>  <Molecule Name 2>
viridiflorene

>  <Database>
Essential Oil Database

>  <InChI>
InChI=1S/C15H24/c1-9-6-8-12-14(15(12,3)4)13-10(2)5-7-11(9)13/h10,12-14H,5-8H2,1-4H3/t10-,12-,13-,14-/m0/s1

>  <InChI-Key>
WGTRJVCFDUCKCM-PYJNHQTQSA-N

>  <Smiles>
C[C@@H](CC1)[C@H]2C1=C(C)CC[C@@H]1C(C)(C)[C@H]21

>  <Molecular Formula>
C15H24

$$$$
3,5-dimethoxytoluene
Actelion Java MolfileCreator 2.0

  0  0  0  0  0  0              0 V3000
M  V30 BEGIN CTAB
M  V30 COUNTS 11 11 0 0 0
M  V30 BEGIN ATOM
M  V30 1 O 0.0 0.0 0.0 0
M  V30 2 C -1.3335 0.7689 0.0 0
M  V30 3 C 1.1653 0.7689 0.0 0
M  V30 4 C -2.6671 0.0961 0.0 0
M  V30 5 C -1.4176 2.3067 0.0 0
M  V30 6 C -4.0007 0.877 0.0 0
M  V30 7 C -2.7512 3.0876 0.0 0
M  V30 8 O -5.3343 0.2042 0.0 0
M  V30 9 C -4.0848 2.4148 0.0 0
M  V30 10 C -2.8353 4.6254 0.0 0
M  V30 11 C -5.4184 -1.1653 0.0 0
M  V30 END ATOM
M  V30 BEGIN BOND
M  V30 1 1 1 2
M  V30 2 1 1 3
M  V30 3 2 2 4
M  V30 4 1 2 5
M  V30 5 1 4 6
M  V30 6 2 5 7
M  V30 7 1 6 8
M  V30 8 2 6 9
M  V30 9 1 7 10
M  V30 10 1 8 11
M  V30 11 1 7 9
M  V30 END BOND
M  V30 END CTAB
M  END
>  <Molecule Name>
3,5-dimethoxytoluene

>  <Molecule Name 2>
3,5-dimethoxytoluene

>  <Database>
Essential Oil Database

>  <InChI>
InChI=1S/C9H12O2/c1-7-4-8(10-2)6-9(5-7)11-3/h4-6H,1-3H3

>  <InChI-Key>
RIZBLVRXRWHLFA-UHFFFAOYSA-N

>  <Smiles>
Cc1cc(OC)cc(OC)c1

>  <Molecular Formula>
C9H12O2

$$$$
3-phenylpropyl alcohol
Actelion Java MolfileCreator 2.0

  0  0  0  0  0  0              0 V3000
M  V30 BEGIN CTAB
M  V30 COUNTS 10 10 0 0 0
M  V30 BEGIN ATOM
M  V30 1 O 0.0 0.0 0.0 0
M  V30 2 C 1.2917 -0.6755 0.0 0
M  V30 3 C 1.2088 -2.1687 0.0 0
M  V30 4 C 2.5005 -2.8324 0.0 0
M  V30 5 C 2.4176 -4.3256 0.0 0
M  V30 6 C 3.7093 -4.9892 0.0 0
M  V30 7 C 0.9599 -4.9892 0.0 0
M  V30 8 C 3.6264 -6.4825 0.0 0
M  V30 9 C 0.8769 -6.4825 0.0 0
M  V30 10 C 2.1687 -7.1461 0.0 0
M  V30 END ATOM
M  V30 BEGIN BOND
M  V30 1 1 1 2
M  V30 2 1 2 3
M  V30 3 1 3 4
M  V30 4 1 4 5
M  V30 5 2 5 6
M  V30 6 1 5 7
M  V30 7 1 6 8
M  V30 8 2 7 9
M  V30 9 2 8 10
M  V30 10 1 9 10
M  V30 END BOND
M  V30 END CTAB
M  END
>  <Molecule Name>
3-phenylpropyl alcohol

>  <Molecule Name 2>
3-phenylpropyl alcohol

>  <Database>
Essential Oil Database

>  <InChI>
InChI=1S/C9H12O/c10-8-4-7-9-5-2-1-3-6-9/h1-3,5-6,10H,4,7-8H2

>  <InChI-Key>
VAJVDSVGBWFCLW-UHFFFAOYSA-N

>  <Smiles>
OCCCc1ccccc1

>  <Molecular Formula>
C9H12O

$$$$
benzyl formate
Actelion Java MolfileCreator 2.0

  0  0  0  0  0  0              0 V3000
M  V30 BEGIN CTAB
M  V30 COUNTS 10 10 0 0 0
M  V30 BEGIN ATOM
M  V30 1 O 0.0 0.0 0.0 0
M  V30 2 C 1.2917 -0.6755 0.0 0
M  V30 3 O 1.2088 -2.1687 0.0 0
M  V30 4 C 2.5005 -2.8324 0.0 0
M  V30 5 C 2.4176 -4.3256 0.0 0
M  V30 6 C 3.7093 -4.9892 0.0 0
M  V30 7 C 0.9599 -4.9892 0.0 0
M  V30 8 C 3.6264 -6.4825 0.0 0
M  V30 9 C 0.8769 -6.4825 0.0 0
M  V30 10 C 2.1687 -7.1461 0.0 0
M  V30 END ATOM
M  V30 BEGIN BOND
M  V30 1 2 1 2
M  V30 2 1 2 3
M  V30 3 1 3 4
M  V30 4 1 4 5
M  V30 5 2 5 6
M  V30 6 1 5 7
M  V30 7 1 6 8
M  V30 8 2 7 9
M  V30 9 2 8 10
M  V30 10 1 9 10
M  V30 END BOND
M  V30 END CTAB
M  END
>  <Molecule Name>
benzyl formate

>  <Molecule Name 2>
benzyl formate

>  <Database>
Essential Oil Database

>  <InChI>
InChI=1S/C8H8O2/c9-7-10-6-8-4-2-1-3-5-8/h1-5,7H,6H2

>  <InChI-Key>
UYWQUFXKFGHYNT-UHFFFAOYSA-N

>  <Smiles>
O=COCc1ccccc1

>  <Molecular Formula>
C8H8O2

$$$$
citronellyl formate
Actelion Java MolfileCreator 2.0

  0  0  0  0  0  0              0 V3000
M  V30 BEGIN CTAB
M  V30 COUNTS 13 12 0 0 0
M  V30 BEGIN ATOM
M  V30 1 O 0.0 0.0 0.0 0
M  V30 2 C 1.278 -0.68 0.0 0
M  V30 3 O 2.5561 0.2227 0.0 0
M  V30 4 C 3.8341 -0.4455 0.0 0
M  V30 5 C 5.1122 0.4572 0.0 0
M  V30 6 C 6.3902 -0.211 0.0 0 CFG=2
M  V30 7 C 7.6683 0.6917 0.0 0
M  V30 8 C 6.3081 -1.6884 0.0 0
M  V30 9 C 8.9463 0.0234 0.0 0
M  V30 10 C 10.2244 0.9262 0.0 0
M  V30 11 C 11.5024 0.2579 0.0 0
M  V30 12 C 12.7805 1.1608 0.0 0
M  V30 13 C 11.4204 -1.2194 0.0 0
M  V30 END ATOM
M  V30 BEGIN BOND
M  V30 1 2 1 2
M  V30 2 1 2 3
M  V30 3 1 3 4
M  V30 4 1 4 5
M  V30 5 1 5 6
M  V30 6 1 6 7
M  V30 7 1 6 8 CFG=3
M  V30 8 1 7 9
M  V30 9 1 9 10
M  V30 10 2 10 11
M  V30 11 1 11 12
M  V30 12 1 11 13
M  V30 END BOND
M  V30 BEGIN COLLECTION
M  V30 MDLV30/STERAC1 ATOMS=(1 6)
M  V30 END COLLECTION
M  V30 END CTAB
M  END
>  <Molecule Name>
citronellyl formate

>  <Molecule Name 2>
citronellyl formate

>  <Database>
Essential Oil Database

>  <InChI>
InChI=1S/C11H20O2/c1-10(2)5-4-6-11(3)7-8-13-9-12/h5,9,11H,4,6-8H2,1-3H3/t11-/m0/s1

>  <InChI-Key>
DZNVIZQPWLDQHI-NSHDSACASA-N

>  <Smiles>
CC(CCC=C(C)C)CCOC=O

>  <Molecular Formula>
C11H20O2

$$$$
(e)-cinnamic alcohol
Actelion Java MolfileCreator 2.0

  0  0  0  0  0  0              0 V3000
M  V30 BEGIN CTAB
M  V30 COUNTS 10 10 0 0 0
M  V30 BEGIN ATOM
M  V30 1 O 0.0 0.0 0.0 0
M  V30 2 C 1.2917 -0.6755 0.0 0
M  V30 3 C 1.2088 -2.1687 0.0 0
M  V30 4 C 2.5005 -2.8324 0.0 0
M  V30 5 C 2.4176 -4.3256 0.0 0
M  V30 6 C 3.7093 -4.9892 0.0 0
M  V30 7 C 0.9599 -4.9892 0.0 0
M  V30 8 C 3.6264 -6.4825 0.0 0
M  V30 9 C 0.8769 -6.4825 0.0 0
M  V30 10 C 2.1687 -7.1461 0.0 0
M  V30 END ATOM
M  V30 BEGIN BOND
M  V30 1 1 1 2
M  V30 2 1 2 3
M  V30 3 2 3 4
M  V30 4 1 4 5
M  V30 5 2 5 6
M  V30 6 1 5 7
M  V30 7 1 6 8
M  V30 8 2 7 9
M  V30 9 2 8 10
M  V30 10 1 9 10
M  V30 END BOND
M  V30 END CTAB
M  END
>  <Molecule Name>
(e)-cinnamic alcohol

>  <Molecule Name 2>
(e)-cinnamic alcohol

>  <Database>
Essential Oil Database

>  <InChI>
InChI=1S/C9H10O/c10-8-4-7-9-5-2-1-3-6-9/h1-7,10H,8H2/b7-4+

>  <InChI-Key>
OOCCDEMITAIZTP-QPJJXVBHSA-N

>  <Smiles>
OC/C=C/c1ccccc1

>  <Molecular Formula>
C9H10O

$$$$
(e)-cinnamic aldehyde
Actelion Java MolfileCreator 2.0

  0  0  0  0  0  0              0 V3000
M  V30 BEGIN CTAB
M  V30 COUNTS 10 10 0 0 0
M  V30 BEGIN ATOM
M  V30 1 O 0.0 0.0 0.0 0
M  V30 2 C 1.2917 -0.6755 0.0 0
M  V30 3 C 1.2088 -2.1687 0.0 0
M  V30 4 C 2.5005 -2.8324 0.0 0
M  V30 5 C 2.4176 -4.3256 0.0 0
M  V30 6 C 3.7093 -4.9892 0.0 0
M  V30 7 C 0.9599 -4.9892 0.0 0
M  V30 8 C 3.6264 -6.4825 0.0 0
M  V30 9 C 0.8769 -6.4825 0.0 0
M  V30 10 C 2.1687 -7.1461 0.0 0
M  V30 END ATOM
M  V30 BEGIN BOND
M  V30 1 2 1 2
M  V30 2 1 2 3
M  V30 3 2 3 4
M  V30 4 1 4 5
M  V30 5 2 5 6
M  V30 6 1 5 7
M  V30 7 1 6 8
M  V30 8 2 7 9
M  V30 9 2 8 10
M  V30 10 1 9 10
M  V30 END BOND
M  V30 END CTAB
M  END
>  <Molecule Name>
(e)-cinnamic aldehyde

>  <Molecule Name 2>
(e)-cinnamic aldehyde

>  <Database>
Essential Oil Database

>  <InChI>
InChI=1S/C9H8O/c10-8-4-7-9-5-2-1-3-6-9/h1-8H/b7-4+

>  <InChI-Key>
KJPRLNWUNMBNBZ-QPJJXVBHSA-N

>  <Smiles>
O=C/C=C/c1ccccc1

>  <Molecular Formula>
C9H8O

$$$$
isobutylphenylacetate
Actelion Java MolfileCreator 2.0

  0  0  0  0  0  0              0 V3000
M  V30 BEGIN CTAB
M  V30 COUNTS 14 14 0 0 0
M  V30 BEGIN ATOM
M  V30 1 O 0.0 0.0 0.0 0
M  V30 2 C 1.1932 0.7873 0.0 0
M  V30 3 O 2.3865 0.0984 0.0 0 CHG=-1
M  V30 4 C 1.1071 2.3619 0.0 0 CFG=1
M  V30 5 C -0.2583 3.1615 0.0 0
M  V30 6 C 2.3004 3.1615 0.0 0
M  V30 7 C -1.6238 2.4726 0.0 0
M  V30 8 C -0.3444 4.7361 0.0 0
M  V30 9 C 3.4936 2.4726 0.0 0
M  V30 10 C -2.9893 3.2722 0.0 0
M  V30 11 C -1.7099 5.5357 0.0 0
M  V30 12 C 4.6869 3.2722 0.0 0
M  V30 13 C 3.4075 1.0702 0.0 0
M  V30 14 C -3.0754 4.8468 0.0 0
M  V30 END ATOM
M  V30 BEGIN BOND
M  V30 1 2 1 2
M  V30 2 1 2 3
M  V30 3 1 2 4
M  V30 4 1 4 5
M  V30 5 1 4 6 CFG=1
M  V30 6 2 5 7
M  V30 7 1 5 8
M  V30 8 1 6 9
M  V30 9 1 7 10
M  V30 10 2 8 11
M  V30 11 1 9 12
M  V30 12 1 9 13
M  V30 13 2 10 14
M  V30 14 1 11 14
M  V30 END BOND
M  V30 BEGIN COLLECTION
M  V30 MDLV30/STERAC1 ATOMS=(1 4)
M  V30 END COLLECTION
M  V30 END CTAB
M  END
>  <Molecule Name>
isobutylphenylacetate

>  <Molecule Name 2>
isobutylphenylacetate

>  <Database>
Essential Oil Database

>  <InChI>
InChI=1S/C12H16O2/c1-9(2)8-11(12(13)14)10-6-4-3-5-7-10/h3-7,9,11H,8H2,1-2H3,(H,13,14)/p-1/t11-/m1/s1

>  <InChI-Key>
DHURPAIUOZIQDQ-LLVKDONJSA-M

>  <Smiles>
CC(C)CC(C([O-])=O)c1ccccc1

>  <Molecular Formula>
C12H15O2

$$$$
methyl anthranilate
Actelion Java MolfileCreator 2.0

  0  0  0  0  0  0              0 V3000
M  V30 BEGIN CTAB
M  V30 COUNTS 11 11 0 0 0
M  V30 BEGIN ATOM
M  V30 1 O 0.0 0.0 0.0 0
M  V30 2 C 1.2319 0.8128 0.0 0
M  V30 3 O 1.143 2.4384 0.0 0
M  V30 4 C 2.4638 0.1016 0.0 0
M  V30 5 C -0.2667 3.2639 0.0 0
M  V30 6 C 3.6957 0.9271 0.0 0
M  V30 7 C 2.3749 -1.3462 0.0 0
M  V30 8 N 3.6068 2.5527 0.0 0
M  V30 9 C 4.9276 0.2159 0.0 0
M  V30 10 C 3.6068 -2.0574 0.0 0
M  V30 11 C 4.8387 -1.2319 0.0 0
M  V30 END ATOM
M  V30 BEGIN BOND
M  V30 1 2 1 2
M  V30 2 1 2 3
M  V30 3 1 2 4
M  V30 4 1 3 5
M  V30 5 2 4 6
M  V30 6 1 4 7
M  V30 7 1 6 8
M  V30 8 1 6 9
M  V30 9 2 7 10
M  V30 10 2 9 11
M  V30 11 1 10 11
M  V30 END BOND
M  V30 END CTAB
M  END
>  <Molecule Name>
methyl anthranilate

>  <Molecule Name 2>
methyl anthranilate

>  <Database>
Essential Oil Database

>  <InChI>
InChI=1S/C8H9NO2/c1-11-8(10)6-4-2-3-5-7(6)9/h2-5H,9H2,1H3

>  <InChI-Key>
VAMXMNNIEUEQDV-UHFFFAOYSA-N

>  <Smiles>
COC(c(cccc1)c1N)=O

>  <Molecular Formula>
C8H9NO2

$$$$
phenyl propanal
Actelion Java MolfileCreator 2.0

  0  0  0  0  0  0              0 V3000
M  V30 BEGIN CTAB
M  V30 COUNTS 10 10 0 0 0
M  V30 BEGIN ATOM
M  V30 1 O 0.0 0.0 0.0 0
M  V30 2 C 1.2917 -0.6755 0.0 0
M  V30 3 C 1.2088 -2.1687 0.0 0
M  V30 4 C 2.5005 -2.8324 0.0 0
M  V30 5 C 2.4176 -4.3256 0.0 0
M  V30 6 C 3.7093 -4.9892 0.0 0
M  V30 7 C 0.9599 -4.9892 0.0 0
M  V30 8 C 3.6264 -6.4825 0.0 0
M  V30 9 C 0.8769 -6.4825 0.0 0
M  V30 10 C 2.1687 -7.1461 0.0 0
M  V30 END ATOM
M  V30 BEGIN BOND
M  V30 1 2 1 2
M  V30 2 1 2 3
M  V30 3 1 3 4
M  V30 4 1 4 5
M  V30 5 2 5 6
M  V30 6 1 5 7
M  V30 7 1 6 8
M  V30 8 2 7 9
M  V30 9 2 8 10
M  V30 10 1 9 10
M  V30 END BOND
M  V30 END CTAB
M  END
>  <Molecule Name>
phenyl propanal

>  <Molecule Name 2>
phenyl propanal

>  <Database>
Essential Oil Database

>  <InChI>
InChI=1S/C9H10O/c10-8-4-7-9-5-2-1-3-6-9/h1-3,5-6,8H,4,7H2

>  <InChI-Key>
YGCZTXZTJXYWCO-UHFFFAOYSA-N

>  <Smiles>
O=CCCc1ccccc1

>  <Molecular Formula>
C9H10O

$$$$
propiophenone
Actelion Java MolfileCreator 2.0

  0  0  0  0  0  0              0 V3000
M  V30 BEGIN CTAB
M  V30 COUNTS 10 10 0 0 0
M  V30 BEGIN ATOM
M  V30 1 O 0.0 0.0 0.0 0
M  V30 2 C -1.3921 -0.7023 0.0 0
M  V30 3 C -1.4799 -2.1321 0.0 0
M  V30 4 C -2.7843 0.1003 0.0 0
M  V30 5 C -0.2633 -2.8345 0.0 0
M  V30 6 C -2.8721 -2.8345 0.0 0
M  V30 7 C -2.8721 1.7057 0.0 0
M  V30 8 C -0.3511 -4.2643 0.0 0
M  V30 9 C -2.9599 -4.2643 0.0 0
M  V30 10 C -1.7433 -4.9667 0.0 0
M  V30 END ATOM
M  V30 BEGIN BOND
M  V30 1 2 1 2
M  V30 2 1 2 3
M  V30 3 1 2 4
M  V30 4 2 3 5
M  V30 5 1 3 6
M  V30 6 1 4 7
M  V30 7 1 5 8
M  V30 8 2 6 9
M  V30 9 2 8 10
M  V30 10 1 9 10
M  V30 END BOND
M  V30 END CTAB
M  END
>  <Molecule Name>
propiophenone

>  <Molecule Name 2>
propiophenone

>  <Database>
Essential Oil Database

>  <InChI>
InChI=1S/C9H10O/c1-2-9(10)8-6-4-3-5-7-8/h3-7H,2H2,1H3

>  <InChI-Key>
KRIOVPPHQSLHCZ-UHFFFAOYSA-N

>  <Smiles>
CCC(c1ccccc1)=O

>  <Molecular Formula>
C9H10O

$$$$
(z)-cinnamaldehyde
Actelion Java MolfileCreator 2.0

  0  0  0  0  0  0              0 V3000
M  V30 BEGIN CTAB
M  V30 COUNTS 10 10 0 0 0
M  V30 BEGIN ATOM
M  V30 1 O 0.0 0.0 0.0 0
M  V30 2 C 1.2854 -0.6604 0.0 0
M  V30 3 C 2.5708 0.2358 0.0 0
M  V30 4 C 3.8563 -0.4245 0.0 0
M  V30 5 C 3.7737 -1.9104 0.0 0
M  V30 6 C 5.0592 -2.5708 0.0 0
M  V30 7 C 2.3232 -2.5708 0.0 0
M  V30 8 C 4.9766 -4.0568 0.0 0
M  V30 9 C 2.2406 -4.0568 0.0 0
M  V30 10 C 3.5261 -4.7172 0.0 0
M  V30 END ATOM
M  V30 BEGIN BOND
M  V30 1 2 1 2
M  V30 2 1 2 3
M  V30 3 2 3 4
M  V30 4 1 4 5
M  V30 5 2 5 6
M  V30 6 1 5 7
M  V30 7 1 6 8
M  V30 8 2 7 9
M  V30 9 2 8 10
M  V30 10 1 9 10
M  V30 END BOND
M  V30 END CTAB
M  END
>  <Molecule Name>
(z)-cinnamaldehyde

>  <Molecule Name 2>
(z)-cinnamaldehyde

>  <Database>
Essential Oil Database

>  <InChI>
InChI=1S/C9H8O/c10-8-4-7-9-5-2-1-3-6-9/h1-8H/b7-4-

>  <InChI-Key>
KJPRLNWUNMBNBZ-DAXSKMNVSA-N

>  <Smiles>
O=C/C=C\c1ccccc1

>  <Molecular Formula>
C9H8O

$$$$
ethylbenzene
Actelion Java MolfileCreator 2.0

  0  0  0  0  0  0              0 V3000
M  V30 BEGIN CTAB
M  V30 COUNTS 8 8 0 0 0
M  V30 BEGIN ATOM
M  V30 1 C 0.0 0.0 0.0 0
M  V30 2 C 1.2144 -0.7011 0.0 0
M  V30 3 C -1.3897 -0.7011 0.0 0
M  V30 4 C -0.0876 1.6026 0.0 0
M  V30 5 C 1.1268 -2.1284 0.0 0
M  V30 6 C -1.4774 -2.1284 0.0 0
M  V30 7 C -1.4774 2.4289 0.0 0
M  V30 8 C -0.2629 -2.8296 0.0 0
M  V30 END ATOM
M  V30 BEGIN BOND
M  V30 1 2 1 2
M  V30 2 1 1 3
M  V30 3 1 1 4
M  V30 4 1 2 5
M  V30 5 2 3 6
M  V30 6 1 4 7
M  V30 7 2 5 8
M  V30 8 1 6 8
M  V30 END BOND
M  V30 END CTAB
M  END
>  <Molecule Name>
ethylbenzene

>  <Molecule Name 2>
ethylbenzene

>  <Database>
Essential Oil Database

>  <InChI>
InChI=1S/C8H10/c1-2-8-6-4-3-5-7-8/h3-7H,2H2,1H3

>  <InChI-Key>
YNQLUTRBYVCPMQ-UHFFFAOYSA-N

>  <Smiles>
CCc1ccccc1

>  <Molecular Formula>
C8H10

$$$$
ethyl formate
Actelion Java MolfileCreator 2.0

  0  0  0  0  0  0              0 V3000
M  V30 BEGIN CTAB
M  V30 COUNTS 5 4 0 0 0
M  V30 BEGIN ATOM
M  V30 1 O 0.0 0.0 0.0 0
M  V30 2 C -0.7592 1.2966 0.0 0
M  V30 3 O -2.2544 1.3783 0.0 0
M  V30 4 C -3.0137 2.6749 0.0 0
M  V30 5 C -4.5089 2.7567 0.0 0
M  V30 END ATOM
M  V30 BEGIN BOND
M  V30 1 2 1 2
M  V30 2 1 2 3
M  V30 3 1 3 4
M  V30 4 1 4 5
M  V30 END BOND
M  V30 END CTAB
M  END
>  <Molecule Name>
ethyl formate

>  <Molecule Name 2>
ethyl formate

>  <Database>
Essential Oil Database

>  <InChI>
InChI=1S/C3H6O2/c1-2-5-3-4/h3H,2H2,1H3

>  <InChI-Key>
WBJINCZRORDGAQ-UHFFFAOYSA-N

>  <Smiles>
CCOC=O

>  <Molecular Formula>
C3H6O2

$$$$
ethyl salicylate
Actelion Java MolfileCreator 2.0

  0  0  0  0  0  0              0 V3000
M  V30 BEGIN CTAB
M  V30 COUNTS 12 12 0 0 0
M  V30 BEGIN ATOM
M  V30 1 O 0.0 0.0 0.0 0
M  V30 2 C -1.3739 -0.6931 0.0 0
M  V30 3 O -2.7478 0.1113 0.0 0
M  V30 4 C -1.4605 -2.1042 0.0 0
M  V30 5 C -2.8344 1.6957 0.0 0
M  V30 6 C -2.8344 -2.7973 0.0 0
M  V30 7 C -0.2599 -2.7973 0.0 0
M  V30 8 C -4.2084 2.5003 0.0 0
M  V30 9 O -4.2084 -1.9804 0.0 0
M  V30 10 C -2.9211 -4.2084 0.0 0
M  V30 11 C -0.3465 -4.2084 0.0 0
M  V30 12 C -1.7205 -4.9015 0.0 0
M  V30 END ATOM
M  V30 BEGIN BOND
M  V30 1 2 1 2
M  V30 2 1 2 3
M  V30 3 1 2 4
M  V30 4 1 3 5
M  V30 5 2 4 6
M  V30 6 1 4 7
M  V30 7 1 5 8
M  V30 8 1 6 9
M  V30 9 1 6 10
M  V30 10 2 7 11
M  V30 11 2 10 12
M  V30 12 1 11 12
M  V30 END BOND
M  V30 END CTAB
M  END
>  <Molecule Name>
ethyl salicylate

>  <Molecule Name 2>
ethyl salicylate

>  <Database>
Essential Oil Database

>  <InChI>
InChI=1S/C9H10O3/c1-2-12-9(11)7-5-3-4-6-8(7)10/h3-6,10H,2H2,1H3

>  <InChI-Key>
GYCKQBWUSACYIF-UHFFFAOYSA-N

>  <Smiles>
CCOC(c(cccc1)c1O)=O

>  <Molecular Formula>
C9H10O3

$$$$
(e,z)-2,6-nonadienol
Actelion Java MolfileCreator 2.0

  0  0  0  0  0  0              0 V3000
M  V30 BEGIN CTAB
M  V30 COUNTS 10 9 0 0 0
M  V30 BEGIN ATOM
M  V30 1 O 0.0 0.0 0.0 0
M  V30 2 C 0.6767 1.3414 0.0 0
M  V30 3 C 2.0545 1.426 0.0 0
M  V30 4 C 2.7313 2.7675 0.0 0
M  V30 5 C 1.9457 4.109 0.0 0
M  V30 6 C 2.6225 5.4505 0.0 0
M  V30 7 C 1.8369 6.792 0.0 0
M  V30 8 C 0.29 6.8765 0.0 0
M  V30 9 C -0.4834 5.7043 0.0 0
M  V30 10 C -2.0303 5.7889 0.0 0
M  V30 END ATOM
M  V30 BEGIN BOND
M  V30 1 1 1 2
M  V30 2 1 2 3
M  V30 3 2 3 4
M  V30 4 1 4 5
M  V30 5 1 5 6
M  V30 6 1 6 7
M  V30 7 2 7 8
M  V30 8 1 8 9
M  V30 9 1 9 10
M  V30 END BOND
M  V30 END CTAB
M  END
>  <Molecule Name>
(e,z)-2,6-nonadienol

>  <Molecule Name 2>
(e,z)-2,6-nonadienol

>  <Database>
Essential Oil Database

>  <InChI>
InChI=1S/C9H16O/c1-2-3-4-5-6-7-8-9-10/h3-4,7-8,10H,2,5-6,9H2,1H3/b4-3-,8-7-

>  <InChI-Key>
AMXYRHBJZOVHOL-KPDBFRNYSA-N

>  <Smiles>
CC/C=C\CC/C=C\CO

>  <Molecular Formula>
C9H16O

$$$$
isoamyl alcohol
Actelion Java MolfileCreator 2.0

  0  0  0  0  0  0              0 V3000
M  V30 BEGIN CTAB
M  V30 COUNTS 6 5 0 0 0
M  V30 BEGIN ATOM
M  V30 1 O 0.0 0.0 0.0 0
M  V30 2 C -0.8202 -1.2432 0.0 0
M  V30 3 C -0.1025 -2.4864 0.0 0
M  V30 4 C -0.9356 -3.7296 0.0 0
M  V30 5 C -0.2178 -4.9728 0.0 0
M  V30 6 C -2.5761 -3.6399 0.0 0
M  V30 END ATOM
M  V30 BEGIN BOND
M  V30 1 1 1 2
M  V30 2 1 2 3
M  V30 3 1 3 4
M  V30 4 1 4 5
M  V30 5 1 4 6
M  V30 END BOND
M  V30 END CTAB
M  END
>  <Molecule Name>
isoamyl alcohol

>  <Molecule Name 2>
isoamyl alcohol

>  <Database>
Essential Oil Database

>  <InChI>
InChI=1S/C5H12O/c1-5(2)3-4-6/h5-6H,3-4H2,1-2H3

>  <InChI-Key>
PHTQWCKDNZKARW-UHFFFAOYSA-N

>  <Smiles>
CC(C)CCO

>  <Molecular Formula>
C5H12O

$$$$
isophorone
Actelion Java MolfileCreator 2.0

  0  0  0  0  0  0              0 V3000
M  V30 BEGIN CTAB
M  V30 COUNTS 10 10 0 0 0
M  V30 BEGIN ATOM
M  V30 1 O 0.0 0.0 0.0 0
M  V30 2 C 1.2216 0.8186 0.0 0
M  V30 3 C 2.4433 0.1133 0.0 0
M  V30 4 C 1.1335 2.4307 0.0 0
M  V30 5 C 3.665 0.932 0.0 0
M  V30 6 C 2.3552 3.2494 0.0 0
M  V30 7 C 3.5769 2.5441 0.0 0
M  V30 8 C 4.8867 0.2267 0.0 0
M  V30 9 C 1.3098 4.4837 0.0 0
M  V30 10 C 3.2242 4.4837 0.0 0
M  V30 END ATOM
M  V30 BEGIN BOND
M  V30 1 2 1 2
M  V30 2 1 2 3
M  V30 3 1 2 4
M  V30 4 2 3 5
M  V30 5 1 4 6
M  V30 6 1 5 7
M  V30 7 1 5 8
M  V30 8 1 6 9
M  V30 9 1 6 10
M  V30 10 1 6 7
M  V30 END BOND
M  V30 END CTAB
M  END
>  <Molecule Name>
isophorone

>  <Molecule Name 2>
isophorone

>  <Database>
Essential Oil Database

>  <InChI>
InChI=1S/C9H14O/c1-7-4-8(10)6-9(2,3)5-7/h4H,5-6H2,1-3H3

>  <InChI-Key>
HJOVHMDZYOCNQW-UHFFFAOYSA-N

>  <Smiles>
CC(C)(CC(C)=C1)CC1=O

>  <Molecular Formula>
C9H14O

$$$$
p-xylene
Actelion Java MolfileCreator 2.0

  0  0  0  0  0  0              0 V3000
M  V30 BEGIN CTAB
M  V30 COUNTS 8 8 0 0 0
M  V30 BEGIN ATOM
M  V30 1 C 0.0 0.0 0.0 0
M  V30 2 C 1.2337 -0.7122 0.0 0
M  V30 3 C -1.4117 -0.7122 0.0 0
M  V30 4 C -0.089 1.6279 0.0 0
M  V30 5 C 1.1446 -2.1621 0.0 0
M  V30 6 C -1.5008 -2.1621 0.0 0
M  V30 7 C -0.267 -2.8744 0.0 0
M  V30 8 C -0.3561 -4.3243 0.0 0
M  V30 END ATOM
M  V30 BEGIN BOND
M  V30 1 2 1 2
M  V30 2 1 1 3
M  V30 3 1 1 4
M  V30 4 1 2 5
M  V30 5 2 3 6
M  V30 6 2 5 7
M  V30 7 1 7 8
M  V30 8 1 6 7
M  V30 END BOND
M  V30 END CTAB
M  END
>  <Molecule Name>
p-xylene

>  <Molecule Name 2>
p-xylene

>  <Database>
Essential Oil Database

>  <InChI>
InChI=1S/C8H10/c1-7-3-5-8(2)6-4-7/h3-6H,1-2H3

>  <InChI-Key>
URLKBWYHVLBVBO-UHFFFAOYSA-N

>  <Smiles>
Cc1ccc(C)cc1

>  <Molecular Formula>
C8H10

$$$$
1-nonadecene
Actelion Java MolfileCreator 2.0

  0  0  0  0  0  0              0 V3000
M  V30 BEGIN CTAB
M  V30 COUNTS 19 18 0 0 0
M  V30 BEGIN ATOM
M  V30 1 C 0.0 0.0 0.0 0
M  V30 2 C -1.4344 0.8293 0.0 0
M  V30 3 C 1.2775 0.8293 0.0 0
M  V30 4 C 2.5551 0.1344 0.0 0
M  V30 5 C 3.8327 0.9638 0.0 0
M  V30 6 C 5.1103 0.2689 0.0 0
M  V30 7 C 6.3879 1.0982 0.0 0
M  V30 8 C 7.6655 0.4034 0.0 0
M  V30 9 C 8.9431 1.2327 0.0 0
M  V30 10 C 10.2207 0.5379 0.0 0
M  V30 11 C 11.4983 1.3672 0.0 0
M  V30 12 C 12.7759 0.6724 0.0 0
M  V30 13 C 14.0535 1.5017 0.0 0
M  V30 14 C 15.3311 0.8069 0.0 0
M  V30 15 C 16.6087 1.6362 0.0 0
M  V30 16 C 17.8863 0.9413 0.0 0
M  V30 17 C 19.1639 1.7707 0.0 0
M  V30 18 C 20.4415 1.0758 0.0 0
M  V30 19 C 21.7191 1.9051 0.0 0
M  V30 END ATOM
M  V30 BEGIN BOND
M  V30 1 2 1 2
M  V30 2 1 1 3
M  V30 3 1 3 4
M  V30 4 1 4 5
M  V30 5 1 5 6
M  V30 6 1 6 7
M  V30 7 1 7 8
M  V30 8 1 8 9
M  V30 9 1 9 10
M  V30 10 1 10 11
M  V30 11 1 11 12
M  V30 12 1 12 13
M  V30 13 1 13 14
M  V30 14 1 14 15
M  V30 15 1 15 16
M  V30 16 1 16 17
M  V30 17 1 17 18
M  V30 18 1 18 19
M  V30 END BOND
M  V30 END CTAB
M  END
>  <Molecule Name>
1-nonadecene

>  <Molecule Name 2>
1-nonadecene

>  <Database>
Essential Oil Database

>  <InChI>
InChI=1S/C19H38/c1-3-5-7-9-11-13-15-17-19-18-16-14-12-10-8-6-4-2/h3H,1,4-19H2,2H3

>  <InChI-Key>
NHLUYCJZUXOUBX-UHFFFAOYSA-N

>  <Smiles>
CCCCCCCCCCCCCCCCCC=C

>  <Molecular Formula>
C19H38

$$$$
beta-eudesmol
Actelion Java MolfileCreator 2.0

  0  0  0  0  0  0              0 V3000
M  V30 BEGIN CTAB
M  V30 COUNTS 16 17 0 0 0
M  V30 BEGIN ATOM
M  V30 1 O 0.0 0.0 0.0 0
M  V30 2 C 0.7099 -1.2297 0.0 0
M  V30 3 C 1.9397 -0.393 0.0 0 CFG=2
M  V30 4 C -0.6973 -1.9524 0.0 0
M  V30 5 C 1.4199 -2.4595 0.0 0
M  V30 6 C 3.1695 -1.1156 0.0 0
M  V30 7 C 1.851 1.2297 0.0 0
M  V30 8 C 4.3993 -0.2916 0.0 0 CFG=2
M  V30 9 C 3.0808 2.0665 0.0 0
M  V30 10 C 5.6291 -1.0142 0.0 0
M  V30 11 C 4.3106 1.3312 0.0 0 CFG=2
M  V30 12 C 5.5404 -2.4595 0.0 0
M  V30 13 C 6.8589 -0.1774 0.0 0
M  V30 14 C 5.5404 2.1553 0.0 0
M  V30 15 C 4.2218 2.954 0.0 0
M  V30 16 C 6.7702 1.4453 0.0 0
M  V30 END ATOM
M  V30 BEGIN BOND
M  V30 1 1 1 2
M  V30 2 1 3 2 CFG=1
M  V30 3 1 2 4
M  V30 4 1 2 5
M  V30 5 1 3 6
M  V30 6 1 3 7
M  V30 7 1 8 6 CFG=1
M  V30 8 1 7 9
M  V30 9 1 8 10
M  V30 10 1 8 11
M  V30 11 2 10 12
M  V30 12 1 10 13
M  V30 13 1 11 14
M  V30 14 1 11 15 CFG=1
M  V30 15 1 13 16
M  V30 16 1 9 11
M  V30 17 1 14 16
M  V30 END BOND
M  V30 BEGIN COLLECTION
M  V30 MDLV30/STERAC1 ATOMS=(3 3 8 11)
M  V30 END COLLECTION
M  V30 END CTAB
M  END
>  <Molecule Name>
beta-eudesmol

>  <Molecule Name 2>
beta-eudesmol

>  <Database>
Essential Oil Database

>  <InChI>
InChI=1S/C15H26O/c1-11-6-5-8-15(4)9-7-12(10-13(11)15)14(2,3)16/h12-13,16H,1,5-10H2,2-4H3/t12-,13+,15-/m0/s1

>  <InChI-Key>
BOPIMTNSYWYZOC-GUTXKFCHSA-N

>  <Smiles>
CC(C)([C@@H](CC[C@]1(C)CCC2)C[C@@H]1C2=C)O

>  <Molecular Formula>
C15H26O

$$$$
guaiol
Actelion Java MolfileCreator 2.0

  0  0  0  0  0  0              0 V3000
M  V30 BEGIN CTAB
M  V30 COUNTS 16 17 0 0 0
M  V30 BEGIN ATOM
M  V30 1 O 0.0 0.0 0.0 0
M  V30 2 C 1.0831 -0.8397 0.0 0
M  V30 3 C 0.073 -1.9228 0.0 0 CFG=2
M  V30 4 C 1.9228 0.4137 0.0 0
M  V30 5 C 2.1662 -1.6794 0.0 0
M  V30 6 C -1.4847 -1.4968 0.0 0
M  V30 7 C 0.6571 -3.1884 0.0 0
M  V30 8 C -2.7381 -2.3365 0.0 0
M  V30 9 C -0.0973 -4.4541 0.0 0
M  V30 10 C -2.8233 -3.7604 0.0 0
M  V30 11 C -4.2594 -1.7767 0.0 0 CFG=1
M  V30 12 C -1.655 -4.7096 0.0 0 CFG=2
M  V30 13 C -4.3445 -4.1498 0.0 0
M  V30 14 C -5.2208 -2.9085 0.0 0
M  V30 15 C -4.8192 -0.2555 0.0 0
M  V30 16 C -2.081 -6.097 0.0 0
M  V30 END ATOM
M  V30 BEGIN BOND
M  V30 1 1 1 2
M  V30 2 1 3 2 CFG=1
M  V30 3 1 2 4
M  V30 4 1 2 5
M  V30 5 1 3 6
M  V30 6 1 3 7
M  V30 7 1 6 8
M  V30 8 1 7 9
M  V30 9 2 8 10
M  V30 10 1 8 11
M  V30 11 1 9 12
M  V30 12 1 10 13
M  V30 13 1 11 14
M  V30 14 1 11 15 CFG=1
M  V30 15 1 12 16 CFG=1
M  V30 16 1 10 12
M  V30 17 1 13 14
M  V30 END BOND
M  V30 BEGIN COLLECTION
M  V30 MDLV30/STERAC1 ATOMS=(3 3 11 12)
M  V30 END COLLECTION
M  V30 END CTAB
M  END
>  <Molecule Name>
guaiol

>  <Molecule Name 2>
guaiol

>  <Database>
Essential Oil Database

>  <InChI>
InChI=1S/C15H26O/c1-10-5-7-12(15(3,4)16)9-14-11(2)6-8-13(10)14/h10-12,16H,5-9H2,1-4H3/t10-,11-,12+/m1/s1

>  <InChI-Key>
TWVJWDMOZJXUID-UTUOFQBUSA-N

>  <Smiles>
C[C@H](CC1)C(C2)=C1[C@H](C)CC[C@@H]2C(C)(C)O

>  <Molecular Formula>
C15H26O

$$$$
pimaradiene
Actelion Java MolfileCreator 2.0

  0  0  0  0  0  0              0 V3000
M  V30 BEGIN CTAB
M  V30 COUNTS 20 22 0 0 0
M  V30 BEGIN ATOM
M  V30 1 C 0.0 0.0 0.0 0
M  V30 2 C 1.3962 0.0857 0.0 0
M  V30 3 C -0.796 1.3594 0.0 0 CFG=1
M  V30 4 C -0.796 -1.1879 0.0 0
M  V30 5 C 2.0943 1.4451 0.0 0 CFG=2
M  V30 6 C -2.3637 1.4451 0.0 0 CFG=2
M  V30 7 C -0.1102 2.7189 0.0 0
M  V30 8 C -2.3637 -1.1022 0.0 0
M  V30 9 C 3.123 0.6001 0.0 0
M  V30 10 C 1.2982 2.8046 0.0 0
M  V30 11 C 3.123 2.4617 0.0 0
M  V30 12 C -3.172 0.2571 0.0 0 CFG=1
M  V30 13 C -3.172 2.8046 0.0 0
M  V30 14 C -1.6656 2.8046 0.0 0
M  V30 15 C 4.4213 1.2124 0.0 0
M  V30 16 C -4.7397 0.3429 0.0 0
M  V30 17 C -4.7397 2.8903 0.0 0
M  V30 18 C -5.548 1.7023 0.0 0
M  V30 19 C -6.2094 -0.0979 0.0 0
M  V30 20 C -4.556 -1.0287 0.0 0
M  V30 END ATOM
M  V30 BEGIN BOND
M  V30 1 2 1 2
M  V30 2 1 1 3
M  V30 3 1 1 4
M  V30 4 1 2 5
M  V30 5 1 3 6
M  V30 6 1 3 7 CFG=1
M  V30 7 1 4 8
M  V30 8 1 5 9
M  V30 9 1 5 10
M  V30 10 1 5 11 CFG=3
M  V30 11 1 6 12
M  V30 12 1 6 13
M  V30 13 1 6 14 CFG=1
M  V30 14 2 9 15
M  V30 15 1 12 16
M  V30 16 1 13 17
M  V30 17 1 16 18
M  V30 18 1 16 19
M  V30 19 1 16 20
M  V30 20 1 7 10
M  V30 21 1 12 8 CFG=1
M  V30 22 1 17 18
M  V30 END BOND
M  V30 BEGIN COLLECTION
M  V30 MDLV30/STERAC1 ATOMS=(4 3 5 6 12)
M  V30 END COLLECTION
M  V30 END CTAB
M  END
>  <Molecule Name>
pimaradiene

>  <Molecule Name 2>
pimaradiene

>  <Database>
Essential Oil Database

>  <InChI>
InChI=1S/C20H32/c1-6-19(4)13-10-16-15(14-19)8-9-17-18(2,3)11-7-12-20(16,17)5/h6,14,16-17H,1,7-13H2,2-5H3/t16-,17-,19+,20+/m0/s1

>  <InChI-Key>
XDSYKASBVOZOAG-RAUXBKROSA-N

>  <Smiles>
CC(C)(CCC1)[C@H](CC2)[C@@]1(C)[C@@H](CC1)C2=C[C@]1(C)C=C

>  <Molecular Formula>
C20H32

$$$$
p-menth-1-ene
Actelion Java MolfileCreator 2.0

  0  0  0  0  0  0              0 V3000
M  V30 BEGIN CTAB
M  V30 COUNTS 10 10 0 0 0
M  V30 BEGIN ATOM
M  V30 1 C 0.0 0.0 0.0 0
M  V30 2 C -1.41 -0.7113 0.0 0
M  V30 3 C 1.2322 -0.7113 0.0 0
M  V30 4 C -0.0889 1.626 0.0 0
M  V30 5 C -1.499 -2.1595 0.0 0
M  V30 6 C 1.1433 -2.1595 0.0 0
M  V30 7 C -0.2667 -2.8709 0.0 0 CFG=2
M  V30 8 C -0.3556 -4.3191 0.0 0
M  V30 9 C 0.8765 -5.0432 0.0 0
M  V30 10 C -1.7657 -5.0432 0.0 0
M  V30 END ATOM
M  V30 BEGIN BOND
M  V30 1 2 1 2
M  V30 2 1 1 3
M  V30 3 1 1 4
M  V30 4 1 2 5
M  V30 5 1 3 6
M  V30 6 1 5 7
M  V30 7 1 7 8 CFG=3
M  V30 8 1 8 9
M  V30 9 1 8 10
M  V30 10 1 6 7
M  V30 END BOND
M  V30 BEGIN COLLECTION
M  V30 MDLV30/STERAC1 ATOMS=(1 7)
M  V30 END COLLECTION
M  V30 END CTAB
M  END
>  <Molecule Name>
p-menth-1-ene

>  <Molecule Name 2>
p-menth-1-ene

>  <Database>
Essential Oil Database

>  <InChI>
InChI=1S/C10H18/c1-8(2)10-6-4-9(3)5-7-10/h4,8,10H,5-7H2,1-3H3/t10-/m1/s1

>  <InChI-Key>
FAMJUFMHYAFYNU-SNVBAGLBSA-N

>  <Smiles>
CC(C)C1CC=C(C)CC1

>  <Molecular Formula>
C10H18

$$$$
alpha-cadinol
Actelion Java MolfileCreator 2.0

  0  0  0  0  0  0              0 V3000
M  V30 BEGIN CTAB
M  V30 COUNTS 16 17 0 0 0
M  V30 BEGIN ATOM
M  V30 1 O 0.0 0.0 0.0 0
M  V30 2 C -1.1004 -1.112 0.0 0 CFG=2
M  V30 3 C 0.1621 -1.7838 0.0 0 CFG=2
M  V30 4 C -2.5251 -1.7838 0.0 0
M  V30 5 C -2.2008 0.1621 0.0 0
M  V30 6 C 0.081 -3.2433 0.0 0 CFG=2
M  V30 7 C 1.4247 -0.8919 0.0 0
M  V30 8 C -2.6062 -3.2433 0.0 0
M  V30 9 C 1.3436 -3.9151 0.0 0
M  V30 10 C -1.3436 -3.9151 0.0 0 CFG=2
M  V30 11 C 2.6873 -1.5637 0.0 0
M  V30 12 C 2.6062 -3.0232 0.0 0
M  V30 13 C -1.4247 -5.3746 0.0 0
M  V30 14 C 3.8688 -3.7298 0.0 0
M  V30 15 C -0.1621 -6.0349 0.0 0
M  V30 16 C -2.8495 -6.0349 0.0 0
M  V30 END ATOM
M  V30 BEGIN BOND
M  V30 1 1 2 1 CFG=3
M  V30 2 1 2 3
M  V30 3 1 2 4
M  V30 4 1 2 5
M  V30 5 1 3 6
M  V30 6 1 3 7 CFG=1
M  V30 7 1 4 8
M  V30 8 1 6 9 CFG=3
M  V30 9 1 6 10
M  V30 10 1 7 11
M  V30 11 2 9 12
M  V30 12 1 10 13 CFG=1
M  V30 13 1 12 14
M  V30 14 1 13 15
M  V30 15 1 13 16
M  V30 16 1 8 10
M  V30 17 1 11 12
M  V30 END BOND
M  V30 BEGIN COLLECTION
M  V30 MDLV30/STERAC1 ATOMS=(4 2 3 6 10)
M  V30 END COLLECTION
M  V30 END CTAB
M  END
>  <Molecule Name>
alpha-cadinol

>  <Molecule Name 2>
alpha-cadinol

>  <Database>
Essential Oil Database

>  <InChI>
InChI=1S/C15H26O/c1-10(2)12-7-8-15(4,16)14-6-5-11(3)9-13(12)14/h9-10,12-14,16H,5-8H2,1-4H3/t12-,13-,14+,15+/m1/s1

>  <InChI-Key>
LHYHMMRYTDARSZ-KBXIAJHMSA-N

>  <Smiles>
CC(C)[C@@H](CC1)[C@H]2C=C(C)CC[C@@H]2[C@@]1(C)O

>  <Molecular Formula>
C15H26O

$$$$
alpha-muurolene
Actelion Java MolfileCreator 2.0

  0  0  0  0  0  0              0 V3000
M  V30 BEGIN CTAB
M  V30 COUNTS 15 16 0 0 0
M  V30 BEGIN ATOM
M  V30 1 C 0.0 0.0 0.0 0
M  V30 2 C -1.428 -0.7204 0.0 0
M  V30 3 C 1.2479 -0.7204 0.0 0 CFG=2
M  V30 4 C -0.09 1.6467 0.0 0
M  V30 5 C -1.518 -2.187 0.0 0
M  V30 6 C 1.1578 -2.187 0.0 0 CFG=2
M  V30 7 C 2.4958 0.1029 0.0 0
M  V30 8 C -0.2701 -2.9203 0.0 0 CFG=2
M  V30 9 C 2.4057 -2.9203 0.0 0
M  V30 10 C 3.7437 -0.6175 0.0 0
M  V30 11 C -0.3602 -4.3869 0.0 0
M  V30 12 C 3.6536 -2.0712 0.0 0
M  V30 13 C 0.8876 -5.1203 0.0 0
M  V30 14 C -1.7882 -5.1203 0.0 0
M  V30 15 C 4.9016 -2.8045 0.0 0
M  V30 END ATOM
M  V30 BEGIN BOND
M  V30 1 2 1 2
M  V30 2 1 1 3
M  V30 3 1 1 4
M  V30 4 1 2 5
M  V30 5 1 3 6
M  V30 6 1 3 7 CFG=1
M  V30 7 1 5 8
M  V30 8 1 6 9 CFG=1
M  V30 9 1 7 10
M  V30 10 1 8 11 CFG=3
M  V30 11 2 9 12
M  V30 12 1 11 13
M  V30 13 1 11 14
M  V30 14 1 12 15
M  V30 15 1 6 8
M  V30 16 1 10 12
M  V30 END BOND
M  V30 BEGIN COLLECTION
M  V30 MDLV30/STERAC1 ATOMS=(3 3 6 8)
M  V30 END COLLECTION
M  V30 END CTAB
M  END
>  <Molecule Name>
alpha-muurolene

>  <Molecule Name 2>
alpha-muurolene

>  <Database>
Essential Oil Database

>  <InChI>
InChI=1S/C15H24/c1-10(2)13-8-6-12(4)14-7-5-11(3)9-15(13)14/h6,9-10,13-15H,5,7-8H2,1-4H3/t13-,14+,15-/m0/s1

>  <InChI-Key>
QMAYBMKBYCGXDH-ZNMIVQPWSA-N

>  <Smiles>
CC(C)[C@H]1[C@@H]2C=C(C)CC[C@@H]2C(C)=CC1

>  <Molecular Formula>
C15H24

$$$$
beta-selinene
Actelion Java MolfileCreator 2.0

  0  0  0  0  0  0              0 V3000
M  V30 BEGIN CTAB
M  V30 COUNTS 15 16 0 0 0
M  V30 BEGIN ATOM
M  V30 1 C 0.0 0.0 0.0 0
M  V30 2 C -0.0843 -1.3739 0.0 0
M  V30 3 C -1.3378 0.7834 0.0 0 CFG=2
M  V30 4 C 1.169 0.7834 0.0 0
M  V30 5 C -1.4221 2.3261 0.0 0 CFG=2
M  V30 6 C -2.6756 0.1084 0.0 0
M  V30 7 C 1.0847 2.3261 0.0 0
M  V30 8 C -2.7599 3.1095 0.0 0
M  V30 9 C -0.253 3.1095 0.0 0
M  V30 10 C -1.5065 3.8688 0.0 0
M  V30 11 C -4.0134 0.8918 0.0 0 CFG=2
M  V30 12 C -4.0978 2.4345 0.0 0
M  V30 13 C -5.3512 0.2048 0.0 0
M  V30 14 C -6.689 0.9882 0.0 0
M  V30 15 C -5.4356 -1.169 0.0 0
M  V30 END ATOM
M  V30 BEGIN BOND
M  V30 1 2 1 2
M  V30 2 1 1 3
M  V30 3 1 1 4
M  V30 4 1 3 5
M  V30 5 1 3 6 CFG=1
M  V30 6 1 4 7
M  V30 7 1 5 8
M  V30 8 1 5 9
M  V30 9 1 5 10 CFG=1
M  V30 10 1 6 11
M  V30 11 1 8 12
M  V30 12 1 11 13 CFG=1
M  V30 13 2 13 14
M  V30 14 1 13 15
M  V30 15 1 7 9
M  V30 16 1 11 12
M  V30 END BOND
M  V30 BEGIN COLLECTION
M  V30 MDLV30/STERAC1 ATOMS=(3 3 5 11)
M  V30 END COLLECTION
M  V30 END CTAB
M  END
>  <Molecule Name>
beta-selinene

>  <Molecule Name 2>
beta-selinene

>  <Database>
Essential Oil Database

>  <InChI>
InChI=1S/C15H24/c1-11(2)13-7-9-15(4)8-5-6-12(3)14(15)10-13/h13-14H,1,3,5-10H2,2,4H3/t13-,14+,15-/m0/s1

>  <InChI-Key>
YOVSPTNQHMDJAG-ZNMIVQPWSA-N

>  <Smiles>
C[C@](CCC1)(CC[C@@H](C2)C(C)=C)[C@H]2C1=C

>  <Molecular Formula>
C15H24

$$$$
cis-muurola-4(14),5-diene
Actelion Java MolfileCreator 2.0

  0  0  0  0  0  0              0 V3000
M  V30 BEGIN CTAB
M  V30 COUNTS 15 16 0 0 0
M  V30 BEGIN ATOM
M  V30 1 C 0.0 0.0 0.0 0
M  V30 2 C 1.1983 -0.7041 0.0 0
M  V30 3 C -0.0864 1.5813 0.0 0 CFG=2
M  V30 4 C -1.3712 -0.7041 0.0 0 CFG=1
M  V30 5 C 2.3966 0.0988 0.0 0
M  V30 6 C -1.4577 2.3843 0.0 0 CFG=1
M  V30 7 C 1.1118 2.3843 0.0 0
M  V30 8 C -1.4577 -2.1125 0.0 0
M  V30 9 C -2.7425 0.0988 0.0 0
M  V30 10 C 3.595 -0.6053 0.0 0
M  V30 11 C 2.3102 1.6801 0.0 0
M  V30 12 C -2.829 1.6925 0.0 0
M  V30 13 C -1.5442 3.9656 0.0 0
M  V30 14 C -0.2594 -2.8167 0.0 0
M  V30 15 C -2.829 -2.8167 0.0 0
M  V30 END ATOM
M  V30 BEGIN BOND
M  V30 1 2 1 2
M  V30 2 1 1 3
M  V30 3 1 1 4
M  V30 4 1 2 5
M  V30 5 1 3 6
M  V30 6 1 3 7 CFG=3
M  V30 7 1 4 8 CFG=1
M  V30 8 1 4 9
M  V30 9 2 5 10
M  V30 10 1 5 11
M  V30 11 1 6 12
M  V30 12 1 6 13 CFG=1
M  V30 13 1 8 14
M  V30 14 1 8 15
M  V30 15 1 7 11
M  V30 16 1 9 12
M  V30 END BOND
M  V30 BEGIN COLLECTION
M  V30 MDLV30/STERAC1 ATOMS=(3 3 4 6)
M  V30 END COLLECTION
M  V30 END CTAB
M  END
>  <Molecule Name>
cis-muurola-4(14),5-diene

>  <Molecule Name 2>
cis-muurola-4(14),5-diene

>  <Database>
Essential Oil Database

>  <InChI>
InChI=1S/C15H24/c1-10(2)13-8-6-12(4)14-7-5-11(3)9-15(13)14/h9-10,12-14H,3,5-8H2,1-2,4H3/t12-,13-,14+/m1/s1

>  <InChI-Key>
RNDFUOKDULDZPR-MCIONIFRSA-N

>  <Smiles>
CC(C)[C@@H](CC[C@@H](C)[C@@H]1CC2)C1=CC2=C

>  <Molecular Formula>
C15H24

$$$$
globulol
Actelion Java MolfileCreator 2.0

  0  0  0  0  0  0              0 V3000
M  V30 BEGIN CTAB
M  V30 COUNTS 16 18 0 0 0
M  V30 BEGIN ATOM
M  V30 1 O 0.0 0.0 0.0 0
M  V30 2 C -1.5245 -0.3873 0.0 0
M  V30 3 C -1.0997 -1.7245 0.0 0 CFG=2
M  V30 4 C -3.0366 0.2374 0.0 0
M  V30 5 C -1.1121 1.1371 0.0 0
M  V30 6 C -1.9744 -2.8992 0.0 0
M  V30 7 C 0.2749 -2.0369 0.0 0
M  V30 8 C -4.3988 -0.4873 0.0 0
M  V30 9 C -1.1246 -3.9614 0.0 0 CFG=2
M  V30 10 C -3.574 -2.9741 0.0 0
M  V30 11 C 0.2874 -3.4615 0.0 0
M  V30 12 C -4.6737 -1.8994 0.0 0
M  V30 13 C -1.612 -5.336 0.0 0
M  V30 14 C -5.1236 -3.2866 0.0 0
M  V30 15 C -6.6981 -3.4615 0.0 0
M  V30 16 C -5.4985 -4.6862 0.0 0
M  V30 END ATOM
M  V30 BEGIN BOND
M  V30 1 1 1 2
M  V30 2 1 3 2 CFG=1
M  V30 3 1 2 4
M  V30 4 1 2 5
M  V30 5 1 3 6
M  V30 6 1 3 7
M  V30 7 1 4 8
M  V30 8 1 6 9
M  V30 9 1 6 10
M  V30 10 1 7 11
M  V30 11 1 8 12
M  V30 12 1 9 13 CFG=3
M  V30 13 1 10 14
M  V30 14 1 14 15
M  V30 15 1 14 16
M  V30 16 1 9 11
M  V30 17 1 10 12
M  V30 18 1 12 14
M  V30 END BOND
M  V30 BEGIN COLLECTION
M  V30 MDLV30/STERAC1 ATOMS=(2 3 9)
M  V30 END COLLECTION
M  V30 END CTAB
M  END
>  <Molecule Name>
globulol

>  <Molecule Name 2>
globulol

>  <Database>
Essential Oil Database

>  <InChI>
InChI=1S/C15H26O/c1-9-5-6-10-12(9)13-11(14(13,2)3)7-8-15(10,4)16/h9-13,16H,5-8H2,1-4H3/t9-,10-,11?,12?,13?,15?/m0/s1

>  <InChI-Key>
AYXPYQRXGNDJFU-NVHPZXLWSA-N

>  <Smiles>
C[C@@H](CC1)C(C2C(C)(C)C2CC2)[C@H]1C2(C)O

>  <Molecular Formula>
C15H26O

$$$$
viridiflorol
Actelion Java MolfileCreator 2.0

  0  0  0  0  0  0              0 V3000
M  V30 BEGIN CTAB
M  V30 COUNTS 16 18 0 0 0
M  V30 BEGIN ATOM
M  V30 1 O 0.0 0.0 0.0 0
M  V30 2 C -1.5245 -0.3873 0.0 0
M  V30 3 C -1.0997 -1.7245 0.0 0 CFG=2
M  V30 4 C -3.0366 0.2374 0.0 0
M  V30 5 C -1.1121 1.1371 0.0 0
M  V30 6 C -1.9744 -2.8992 0.0 0
M  V30 7 C 0.2749 -2.0369 0.0 0
M  V30 8 C -4.3988 -0.4873 0.0 0
M  V30 9 C -1.1246 -3.9614 0.0 0 CFG=1
M  V30 10 C -3.574 -2.9741 0.0 0
M  V30 11 C 0.2874 -3.4615 0.0 0
M  V30 12 C -4.6737 -1.8994 0.0 0
M  V30 13 C -1.612 -5.336 0.0 0
M  V30 14 C -5.1236 -3.2866 0.0 0
M  V30 15 C -6.6981 -3.4615 0.0 0
M  V30 16 C -5.4985 -4.6862 0.0 0
M  V30 END ATOM
M  V30 BEGIN BOND
M  V30 1 1 1 2
M  V30 2 1 3 2 CFG=1
M  V30 3 1 2 4
M  V30 4 1 2 5
M  V30 5 1 3 6
M  V30 6 1 3 7
M  V30 7 1 4 8
M  V30 8 1 6 9
M  V30 9 1 6 10
M  V30 10 1 7 11
M  V30 11 1 8 12
M  V30 12 1 9 13 CFG=1
M  V30 13 1 10 14
M  V30 14 1 14 15
M  V30 15 1 14 16
M  V30 16 1 9 11
M  V30 17 1 10 12
M  V30 18 1 12 14
M  V30 END BOND
M  V30 BEGIN COLLECTION
M  V30 MDLV30/STERAC1 ATOMS=(2 3 9)
M  V30 END COLLECTION
M  V30 END CTAB
M  END
>  <Molecule Name>
viridiflorol

>  <Molecule Name 2>
viridiflorol

>  <Database>
Essential Oil Database

>  <InChI>
InChI=1S/C15H26O/c1-9-5-6-10-12(9)13-11(14(13,2)3)7-8-15(10,4)16/h9-13,16H,5-8H2,1-4H3/t9-,10+,11?,12?,13?,15?/m1/s1

>  <InChI-Key>
AYXPYQRXGNDJFU-ZBZBBCKZSA-N

>  <Smiles>
C[C@H](CC1)C(C2C(C)(C)C2CC2)[C@H]1C2(C)O

>  <Molecular Formula>
C15H26O

$$$$
phytol
Actelion Java MolfileCreator 2.0

  0  0  0  0  0  0              0 V3000
M  V30 BEGIN CTAB
M  V30 COUNTS 21 20 0 0 0
M  V30 BEGIN ATOM
M  V30 1 O 0.0 0.0 0.0 0
M  V30 2 C -0.0911 1.6664 0.0 0
M  V30 3 C 1.1717 2.5256 0.0 0
M  V30 4 C 2.4345 1.7966 0.0 0
M  V30 5 C 3.6974 2.6428 0.0 0
M  V30 6 C 2.3434 0.3124 0.0 0
M  V30 7 C 4.9602 1.9137 0.0 0
M  V30 8 C 6.223 2.76 0.0 0
M  V30 9 C 7.4859 2.0309 0.0 0 CFG=2
M  V30 10 C 8.7487 2.8772 0.0 0
M  V30 11 C 7.3948 0.5467 0.0 0
M  V30 12 C 10.0116 2.1481 0.0 0
M  V30 13 C 11.2744 3.0073 0.0 0
M  V30 14 C 12.5373 2.2783 0.0 0 CFG=2
M  V30 15 C 13.8001 3.1245 0.0 0
M  V30 16 C 12.4461 0.7941 0.0 0
M  V30 17 C 15.063 2.3955 0.0 0
M  V30 18 C 16.3258 3.2417 0.0 0
M  V30 19 C 17.5887 2.5126 0.0 0
M  V30 20 C 18.8515 3.3589 0.0 0
M  V30 21 C 17.4975 1.0285 0.0 0
M  V30 END ATOM
M  V30 BEGIN BOND
M  V30 1 1 1 2
M  V30 2 1 2 3
M  V30 3 2 3 4
M  V30 4 1 4 5
M  V30 5 1 4 6
M  V30 6 1 5 7
M  V30 7 1 7 8
M  V30 8 1 8 9
M  V30 9 1 9 10
M  V30 10 1 9 11 CFG=3
M  V30 11 1 10 12
M  V30 12 1 12 13
M  V30 13 1 13 14
M  V30 14 1 14 15
M  V30 15 1 14 16 CFG=3
M  V30 16 1 15 17
M  V30 17 1 17 18
M  V30 18 1 18 19
M  V30 19 1 19 20
M  V30 20 1 19 21
M  V30 END BOND
M  V30 BEGIN COLLECTION
M  V30 MDLV30/STERAC1 ATOMS=(2 9 14)
M  V30 END COLLECTION
M  V30 END CTAB
M  END
>  <Molecule Name>
phytol

>  <Molecule Name 2>
phytol

>  <Database>
Essential Oil Database

>  <InChI>
InChI=1S/C20H40O/c1-17(2)9-6-10-18(3)11-7-12-19(4)13-8-14-20(5)15-16-21/h15,17-19,21H,6-14,16H2,1-5H3/b20-15+/t18-,19-/m0/s1

>  <InChI-Key>
BOTWFXYSPFMFNR-PFIWFTBQSA-N

>  <Smiles>
CC(C)CCC[C@H](C)CCC[C@H](C)CCC/C(\C)=C/CO

>  <Molecular Formula>
C20H40O

$$$$
alpha-eudesmol
Actelion Java MolfileCreator 2.0

  0  0  0  0  0  0              0 V3000
M  V30 BEGIN CTAB
M  V30 COUNTS 16 17 0 0 0
M  V30 BEGIN ATOM
M  V30 1 O 0.0 0.0 0.0 0
M  V30 2 C -0.7711 -1.1688 0.0 0
M  V30 3 C -2.1086 -0.3855 0.0 0 CFG=1
M  V30 4 C 0.3976 -1.8556 0.0 0
M  V30 5 C -1.5664 -2.3376 0.0 0
M  V30 6 C -3.4461 -1.0724 0.0 0
M  V30 7 C -2.193 1.1567 0.0 0
M  V30 8 C -4.7836 -0.2891 0.0 0 CFG=1
M  V30 9 C -3.5305 1.952 0.0 0
M  V30 10 C -6.1211 -0.976 0.0 0
M  V30 11 C -4.868 1.2531 0.0 0 CFG=1
M  V30 12 C -7.4586 -0.1927 0.0 0
M  V30 13 C -6.2055 -2.3496 0.0 0
M  V30 14 C -6.2055 2.0363 0.0 0
M  V30 15 C -4.9523 2.7954 0.0 0
M  V30 16 C -7.543 1.3495 0.0 0
M  V30 END ATOM
M  V30 BEGIN BOND
M  V30 1 1 1 2
M  V30 2 1 3 2 CFG=1
M  V30 3 1 2 4
M  V30 4 1 2 5
M  V30 5 1 3 6
M  V30 6 1 3 7
M  V30 7 1 8 6 CFG=1
M  V30 8 1 7 9
M  V30 9 1 8 10
M  V30 10 1 8 11
M  V30 11 2 10 12
M  V30 12 1 10 13
M  V30 13 1 11 14
M  V30 14 1 11 15 CFG=1
M  V30 15 1 12 16
M  V30 16 1 9 11
M  V30 17 1 14 16
M  V30 END BOND
M  V30 BEGIN COLLECTION
M  V30 MDLV30/STERAC1 ATOMS=(3 3 8 11)
M  V30 END COLLECTION
M  V30 END CTAB
M  END
>  <Molecule Name>
alpha-eudesmol

>  <Molecule Name 2>
alpha-eudesmol

>  <Database>
Essential Oil Database

>  <InChI>
InChI=1S/C15H26O/c1-11-6-5-8-15(4)9-7-12(10-13(11)15)14(2,3)16/h6,12-13,16H,5,7-10H2,1-4H3/t12-,13+,15-/m1/s1

>  <InChI-Key>
FCSRUSQUAVXUKK-VNHYZAJKSA-N

>  <Smiles>
CC(C)([C@H]1C[C@H]2C(C)=CCC[C@]2(C)CC1)O

>  <Molecular Formula>
C15H26O

$$$$
beta-caryophyllene
Actelion Java MolfileCreator 2.0

  0  0  0  0  0  0              0 V3000
M  V30 BEGIN CTAB
M  V30 COUNTS 15 16 0 0 0
M  V30 BEGIN ATOM
M  V30 1 C 0.0 0.0 0.0 0
M  V30 2 C -0.7758 -1.2001 0.0 0
M  V30 3 C -1.0304 1.1637 0.0 0 CFG=1
M  V30 4 C 1.3698 -0.1454 0.0 0
M  V30 5 C -1.1516 2.7154 0.0 0 CFG=1
M  V30 6 C -2.5821 1.2122 0.0 0
M  V30 7 C 2.5215 0.6667 0.0 0
M  V30 8 C -2.7033 2.7639 0.0 0
M  V30 9 C -0.3515 3.9277 0.0 0
M  V30 10 C 2.9215 2.1457 0.0 0
M  V30 11 C -4.255 2.8124 0.0 0
M  V30 12 C -2.8245 4.3156 0.0 0
M  V30 13 C 0.994 4.3156 0.0 0
M  V30 14 C 1.5516 2.9336 0.0 0
M  V30 15 C 0.3879 2.0729 0.0 0
M  V30 END ATOM
M  V30 BEGIN BOND
M  V30 1 2 1 2
M  V30 2 1 3 1 CFG=3
M  V30 3 1 1 4
M  V30 4 1 3 5
M  V30 5 1 3 6
M  V30 6 1 4 7
M  V30 7 1 5 8
M  V30 8 1 5 9 CFG=1
M  V30 9 1 7 10
M  V30 10 1 8 11
M  V30 11 1 8 12
M  V30 12 1 9 13
M  V30 13 2 10 14
M  V30 14 1 14 15
M  V30 15 1 6 8
M  V30 16 1 13 14
M  V30 END BOND
M  V30 BEGIN COLLECTION
M  V30 MDLV30/STERAC1 ATOMS=(2 3 5)
M  V30 END COLLECTION
M  V30 END CTAB
M  END
>  <Molecule Name>
beta-caryophyllene

>  <Molecule Name 2>
beta-caryophyllene

>  <Database>
Essential Oil Database

>  <InChI>
InChI=1S/C15H24/c1-11-6-5-7-12(2)13-10-15(3,4)14(13)9-8-11/h6,13-14H,2,5,7-10H2,1,3-4H3/b11-6-/t13-,14-/m0/s1

>  <InChI-Key>
NPNUFJAVOOONJE-BJLYVFBQSA-N

>  <Smiles>
CC(C)(C1)[C@@H](CC/C(\C)=C/CC2)[C@@H]1C2=C

>  <Molecular Formula>
C15H24

$$$$
elemol
Actelion Java MolfileCreator 2.0

  0  0  0  0  0  0              0 V3000
M  V30 BEGIN CTAB
M  V30 COUNTS 16 16 0 0 0
M  V30 BEGIN ATOM
M  V30 1 O 0.0 0.0 0.0 0
M  V30 2 C -1.5463 0.0845 0.0 0
M  V30 3 C -1.6309 1.6309 0.0 0 CFG=2
M  V30 4 C -1.6309 -1.2926 0.0 0
M  V30 5 C -3.0927 0.1691 0.0 0
M  V30 6 C -0.459 2.4162 0.0 0
M  V30 7 C -2.9719 2.4162 0.0 0
M  V30 8 C -0.5436 3.9626 0.0 0 CFG=2
M  V30 9 C -3.0565 3.9626 0.0 0
M  V30 10 C 0.6282 4.7478 0.0 0
M  V30 11 C -1.8846 4.7478 0.0 0 CFG=2
M  V30 12 C 1.8 4.0713 0.0 0
M  V30 13 C 0.5436 6.2942 0.0 0
M  V30 14 C -1.2443 6.113 0.0 0
M  V30 15 C -2.6699 6.113 0.0 0
M  V30 16 C -2.0658 7.4298 0.0 0
M  V30 END ATOM
M  V30 BEGIN BOND
M  V30 1 1 1 2
M  V30 2 1 3 2 CFG=1
M  V30 3 1 2 4
M  V30 4 1 2 5
M  V30 5 1 3 6
M  V30 6 1 3 7
M  V30 7 1 6 8
M  V30 8 1 7 9
M  V30 9 1 8 10 CFG=1
M  V30 10 1 8 11
M  V30 11 2 10 12
M  V30 12 1 10 13
M  V30 13 1 11 14
M  V30 14 1 11 15 CFG=1
M  V30 15 2 14 16
M  V30 16 1 9 11
M  V30 END BOND
M  V30 BEGIN COLLECTION
M  V30 MDLV30/STERAC1 ATOMS=(3 3 8 11)
M  V30 END COLLECTION
M  V30 END CTAB
M  END
>  <Molecule Name>
elemol

>  <Molecule Name 2>
elemol

>  <Database>
Essential Oil Database

>  <InChI>
InChI=1S/C15H26O/c1-7-15(6)9-8-12(14(4,5)16)10-13(15)11(2)3/h7,12-13,16H,1-2,8-10H2,3-6H3/t12-,13+,15-/m0/s1

>  <InChI-Key>
GFJIQNADMLPFOW-GUTXKFCHSA-N

>  <Smiles>
CC(C)([C@@H](CC[C@]1(C)C=C)C[C@@H]1C(C)=C)O

>  <Molecular Formula>
C15H26O

$$$$
(e)-nerolidol
Actelion Java MolfileCreator 2.0

  0  0  0  0  0  0              0 V3000
M  V30 BEGIN CTAB
M  V30 COUNTS 16 15 0 0 0
M  V30 BEGIN ATOM
M  V30 1 O 0.0 0.0 0.0 0
M  V30 2 C -1.3894 0.8698 0.0 0 CFG=2
M  V30 3 C -2.2479 -0.3614 0.0 0
M  V30 4 C -0.7568 2.2592 0.0 0
M  V30 5 C -2.7789 1.7283 0.0 0
M  V30 6 C -1.6153 -1.5927 0.0 0
M  V30 7 C -1.6153 3.6487 0.0 0
M  V30 8 C -0.9827 5.0381 0.0 0
M  V30 9 C 0.4405 5.1172 0.0 0
M  V30 10 C 1.0731 6.5067 0.0 0
M  V30 11 C 1.0731 3.8859 0.0 0
M  V30 12 C 2.4964 6.5857 0.0 0
M  V30 13 C 3.129 7.9752 0.0 0
M  V30 14 C 4.5524 8.0543 0.0 0
M  V30 15 C 5.2189 9.4437 0.0 0
M  V30 16 C 5.2189 6.823 0.0 0
M  V30 END ATOM
M  V30 BEGIN BOND
M  V30 1 1 1 2
M  V30 2 1 2 3
M  V30 3 1 2 4
M  V30 4 1 2 5 CFG=1
M  V30 5 2 3 6
M  V30 6 1 4 7
M  V30 7 1 7 8
M  V30 8 2 8 9
M  V30 9 1 9 10
M  V30 10 1 9 11
M  V30 11 1 10 12
M  V30 12 1 12 13
M  V30 13 2 13 14
M  V30 14 1 14 15
M  V30 15 1 14 16
M  V30 END BOND
M  V30 BEGIN COLLECTION
M  V30 MDLV30/STERAC1 ATOMS=(1 2)
M  V30 END COLLECTION
M  V30 END CTAB
M  END
>  <Molecule Name>
(e)-nerolidol

>  <Molecule Name 2>
(e)-nerolidol

>  <Database>
Essential Oil Database

>  <InChI>
InChI=1S/C15H26O/c1-6-15(5,16)12-8-11-14(4)10-7-9-13(2)3/h6,9,11,16H,1,7-8,10,12H2,2-5H3/b14-11+/t15-/m1/s1

>  <InChI-Key>
FQTLCLSUCSAZDY-ATGUSINASA-N

>  <Smiles>
CC(CC/C=C(\C)/CCC=C(C)C)(C=C)O

>  <Molecular Formula>
C15H26O

$$$$
gamma-eudesmol
Actelion Java MolfileCreator 2.0

  0  0  0  0  0  0              0 V3000
M  V30 BEGIN CTAB
M  V30 COUNTS 16 17 0 0 0
M  V30 BEGIN ATOM
M  V30 1 O 0.0 0.0 0.0 0
M  V30 2 C 0.6912 -1.1972 0.0 0
M  V30 3 C -0.6788 -1.8884 0.0 0 CFG=2
M  V30 4 C 1.8884 -0.3949 0.0 0
M  V30 5 C 1.3824 -2.3945 0.0 0
M  V30 6 C -2.0489 -1.0738 0.0 0
M  V30 7 C -0.7652 -3.2955 0.0 0
M  V30 8 C -3.419 -1.765 0.0 0
M  V30 9 C -2.1353 -3.9991 0.0 0
M  V30 10 C -4.789 -0.9504 0.0 0
M  V30 11 C -3.5054 -3.1721 0.0 0 CFG=2
M  V30 12 C -6.1591 -1.6416 0.0 0
M  V30 13 C -4.8754 0.6294 0.0 0
M  V30 14 C -4.8754 -3.8757 0.0 0
M  V30 15 C -3.5918 -4.5792 0.0 0
M  V30 16 C -6.2455 -3.0487 0.0 0
M  V30 END ATOM
M  V30 BEGIN BOND
M  V30 1 1 1 2
M  V30 2 1 3 2 CFG=1
M  V30 3 1 2 4
M  V30 4 1 2 5
M  V30 5 1 3 6
M  V30 6 1 3 7
M  V30 7 1 6 8
M  V30 8 1 7 9
M  V30 9 2 8 10
M  V30 10 1 8 11
M  V30 11 1 10 12
M  V30 12 1 10 13
M  V30 13 1 11 14
M  V30 14 1 11 15 CFG=1
M  V30 15 1 12 16
M  V30 16 1 9 11
M  V30 17 1 14 16
M  V30 END BOND
M  V30 BEGIN COLLECTION
M  V30 MDLV30/STERAC1 ATOMS=(2 3 11)
M  V30 END COLLECTION
M  V30 END CTAB
M  END
>  <Molecule Name>
gamma-eudesmol

>  <Molecule Name 2>
gamma-eudesmol

>  <Database>
Essential Oil Database

>  <InChI>
InChI=1S/C15H26O/c1-11-6-5-8-15(4)9-7-12(10-13(11)15)14(2,3)16/h12,16H,5-10H2,1-4H3/t12-,15-/m0/s1

>  <InChI-Key>
WMOPMQRJLLIEJV-WFASDCNBSA-N

>  <Smiles>
CC(C)([C@@H]1CC2=C(C)CCC[C@@]2(C)CC1)O

>  <Molecular Formula>
C15H26O

$$$$
hinesol
Actelion Java MolfileCreator 2.0

  0  0  0  0  0  0              0 V3000
M  V30 BEGIN CTAB
M  V30 COUNTS 16 17 0 0 0
M  V30 BEGIN ATOM
M  V30 1 O 0.0 0.0 0.0 0
M  V30 2 C 0.8461 1.3264 0.0 0
M  V30 3 C 2.0124 0.4802 0.0 0 CFG=1
M  V30 4 C -0.4802 2.3326 0.0 0
M  V30 5 C 1.6923 2.6528 0.0 0
M  V30 6 C 3.3846 1.0062 0.0 0
M  V30 7 C 1.9324 -0.9605 0.0 0
M  V30 8 C 4.2308 -0.16 0.0 0 CFG=2
M  V30 9 C 3.3046 -1.3264 0.0 0
M  V30 10 C 4.8825 -1.4064 0.0 0
M  V30 11 C 4.8825 1.2463 0.0 0 CFG=2
M  V30 12 C 6.3233 -1.3264 0.0 0
M  V30 13 C 4.0021 -2.6528 0.0 0
M  V30 14 C 6.3233 1.3264 0.0 0
M  V30 15 C 4.0021 2.6528 0.0 0
M  V30 16 C 6.9751 0.08 0.0 0
M  V30 END ATOM
M  V30 BEGIN BOND
M  V30 1 1 1 2
M  V30 2 1 3 2 CFG=1
M  V30 3 1 2 4
M  V30 4 1 2 5
M  V30 5 1 3 6
M  V30 6 1 3 7
M  V30 7 1 6 8
M  V30 8 1 7 9
M  V30 9 1 8 10 CFG=1
M  V30 10 1 8 11
M  V30 11 2 10 12
M  V30 12 1 10 13
M  V30 13 1 11 14
M  V30 14 1 11 15 CFG=1
M  V30 15 1 12 16
M  V30 16 1 8 9
M  V30 17 1 14 16
M  V30 END BOND
M  V30 BEGIN COLLECTION
M  V30 MDLV30/STERAC1 ATOMS=(3 3 8 11)
M  V30 END COLLECTION
M  V30 END CTAB
M  END
>  <Molecule Name>
hinesol

>  <Molecule Name 2>
hinesol

>  <Database>
Essential Oil Database

>  <InChI>
InChI=1S/C15H26O/c1-11-6-5-7-12(2)15(11)9-8-13(10-15)14(3,4)16/h6,12-13,16H,5,7-10H2,1-4H3/t12-,13+,15+/m0/s1

>  <InChI-Key>
ICWHTQRTTHCUHW-GZBFAFLISA-N

>  <Smiles>
C[C@@H]1[C@](CC2)(C[C@@H]2C(C)(C)O)C(C)=CCC1

>  <Molecular Formula>
C15H26O

$$$$
allo-aromadendrene
Actelion Java MolfileCreator 2.0

  0  0  0  0  0  0              0 V3000
M  V30 BEGIN CTAB
M  V30 COUNTS 15 17 0 0 0
M  V30 BEGIN ATOM
M  V30 1 C 0.0 0.0 0.0 0
M  V30 2 C 0.981 1.1319 0.0 0
M  V30 3 C 0.4276 -1.3457 0.0 0 CFG=2
M  V30 4 C -1.5218 0.6288 0.0 0
M  V30 5 C -0.4527 -2.528 0.0 0
M  V30 6 C 1.8111 -1.6602 0.0 0
M  V30 7 C -2.8928 -0.1006 0.0 0
M  V30 8 C 0.4024 -3.5971 0.0 0 CFG=1
M  V30 9 C -2.0627 -2.6035 0.0 0
M  V30 10 C 1.8237 -3.094 0.0 0
M  V30 11 C -3.1695 -1.5218 0.0 0
M  V30 12 C -0.088 -4.9807 0.0 0
M  V30 13 C -3.6223 -2.9179 0.0 0
M  V30 14 C -5.2071 -3.094 0.0 0
M  V30 15 C -3.9996 -4.3266 0.0 0
M  V30 END ATOM
M  V30 BEGIN BOND
M  V30 1 2 1 2
M  V30 2 1 3 1 CFG=1
M  V30 3 1 1 4
M  V30 4 1 3 5
M  V30 5 1 3 6
M  V30 6 1 4 7
M  V30 7 1 5 8
M  V30 8 1 5 9
M  V30 9 1 6 10
M  V30 10 1 7 11
M  V30 11 1 8 12 CFG=1
M  V30 12 1 9 13
M  V30 13 1 13 14
M  V30 14 1 13 15
M  V30 15 1 8 10
M  V30 16 1 9 11
M  V30 17 1 11 13
M  V30 END BOND
M  V30 BEGIN COLLECTION
M  V30 MDLV30/STERAC1 ATOMS=(2 3 8)
M  V30 END COLLECTION
M  V30 END CTAB
M  END
>  <Molecule Name>
allo-aromadendrene

>  <Molecule Name 2>
allo-aromadendrene

>  <Database>
Essential Oil Database

>  <InChI>
InChI=1S/C15H24/c1-9-6-8-12-14(15(12,3)4)13-10(2)5-7-11(9)13/h10-14H,1,5-8H2,2-4H3/t10-,11-,12?,13?,14?/m1/s1

>  <InChI-Key>
ITYNGVSTWVVPIC-UJPKRVMBSA-N

>  <Smiles>
C[C@H](CC1)C(C2C(C)(C)C2CC2)[C@H]1C2=C

>  <Molecular Formula>
C15H24

$$$$
alpha-copaene
Actelion Java MolfileCreator 2.0

  0  0  0  0  0  0              0 V3000
M  V30 BEGIN CTAB
M  V30 COUNTS 15 17 0 0 0
M  V30 BEGIN ATOM
M  V30 1 C 0.0 0.0 0.0 0
M  V30 2 C 1.0252 -0.9746 0.0 0
M  V30 3 C -1.2784 -1.0632 0.0 0
M  V30 4 C -0.0886 1.5569 0.0 0
M  V30 5 C 0.3544 -2.2151 0.0 0
M  V30 6 C -1.924 -0.2405 0.0 0 CFG=2
M  V30 7 C -2.3543 -2.2784 0.0 0
M  V30 8 C -1.2658 -1.9619 0.0 0
M  V30 9 C -3.4429 0.4303 0.0 0
M  V30 10 C -1.1265 0.9999 0.0 0
M  V30 11 C -3.886 -2.1012 0.0 0
M  V30 12 C -4.5189 -0.5822 0.0 0
M  V30 13 C -4.8227 -3.1771 0.0 0
M  V30 14 C -4.291 -4.4303 0.0 0
M  V30 15 C -6.3796 -2.9113 0.0 0
M  V30 END ATOM
M  V30 BEGIN BOND
M  V30 1 2 1 2
M  V30 2 1 1 3
M  V30 3 1 1 4
M  V30 4 1 2 5
M  V30 5 1 3 6
M  V30 6 1 3 7
M  V30 7 1 5 8
M  V30 8 1 6 9
M  V30 9 1 6 10 CFG=1
M  V30 10 1 7 11
M  V30 11 1 9 12
M  V30 12 1 11 13
M  V30 13 1 13 14
M  V30 14 1 13 15
M  V30 15 1 6 8
M  V30 16 1 7 8
M  V30 17 1 11 12
M  V30 END BOND
M  V30 BEGIN COLLECTION
M  V30 MDLV30/STERAC1 ATOMS=(1 6)
M  V30 END COLLECTION
M  V30 END CTAB
M  END
>  <Molecule Name>
alpha-copaene

>  <Molecule Name 2>
alpha-copaene

>  <Database>
Essential Oil Database

>  <InChI>
InChI=1S/C15H24/c1-9(2)11-7-8-15(4)12-6-5-10(3)14(15)13(11)12/h5,9,11-14H,6-8H2,1-4H3/t11?,12?,13?,14?,15-/m0/s1

>  <InChI-Key>
VLXDPFLIRFYIME-MWHZVNNOSA-N

>  <Smiles>
CC(C)C1C2C3C(C)=CCC2C3(C)CC1

>  <Molecular Formula>
C15H24

$$$$
beta-bourbonene
Actelion Java MolfileCreator 2.0

  0  0  0  0  0  0              0 V3000
M  V30 BEGIN CTAB
M  V30 COUNTS 15 17 0 0 0
M  V30 BEGIN ATOM
M  V30 1 C 0.0 0.0 0.0 0
M  V30 2 C 0.3861 -1.3034 0.0 0
M  V30 3 C -1.4723 0.5551 0.0 0 CFG=2
M  V30 4 C 0.7482 1.2551 0.0 0
M  V30 5 C -3.0171 0.6396 0.0 0 CFG=2
M  V30 6 C -1.5568 2.0999 0.0 0 CFG=1
M  V30 7 C -0.1689 2.5102 0.0 0
M  V30 8 C -3.1016 2.1844 0.0 0 CFG=2
M  V30 9 C -4.4894 0.2534 0.0 0 CFG=2
M  V30 10 C -4.5739 2.7395 0.0 0
M  V30 11 C -2.9447 3.705 0.0 0
M  V30 12 C -5.0446 -1.0499 0.0 0
M  V30 13 C -5.4067 1.5085 0.0 0
M  V30 14 C -6.5532 -1.2792 0.0 0
M  V30 15 C -4.1757 -2.0275 0.0 0
M  V30 END ATOM
M  V30 BEGIN BOND
M  V30 1 2 1 2
M  V30 2 1 3 1 CFG=3
M  V30 3 1 1 4
M  V30 4 1 3 5
M  V30 5 1 3 6
M  V30 6 1 4 7
M  V30 7 1 5 8
M  V30 8 1 5 9 CFG=1
M  V30 9 1 8 10
M  V30 10 1 8 11 CFG=3
M  V30 11 1 9 12 CFG=3
M  V30 12 1 9 13
M  V30 13 1 12 14
M  V30 14 1 12 15
M  V30 15 1 6 7 CFG=3
M  V30 16 1 6 8
M  V30 17 1 10 13
M  V30 END BOND
M  V30 BEGIN COLLECTION
M  V30 MDLV30/STERAC1 ATOMS=(5 3 5 6 8 9)
M  V30 END COLLECTION
M  V30 END CTAB
M  END
>  <Molecule Name>
beta-bourbonene

>  <Molecule Name 2>
beta-bourbonene

>  <Database>
Essential Oil Database

>  <InChI>
InChI=1S/C15H24/c1-9(2)11-7-8-15(4)12-6-5-10(3)13(12)14(11)15/h9,11-14H,3,5-8H2,1-2,4H3/t11-,12+,13-,14+,15-/m0/s1

>  <InChI-Key>
YIRAHEODBQONHI-ZQNQSHIBSA-N

>  <Smiles>
CC(C)[C@H](CC1)[C@H]2[C@]1(C)[C@H](CC1)[C@@H]2C1=C

>  <Molecular Formula>
C15H24

$$$$
bicyclogermacrene
Actelion Java MolfileCreator 2.0

  0  0  0  0  0  0              0 V3000
M  V30 BEGIN CTAB
M  V30 COUNTS 15 16 0 0 0
M  V30 BEGIN ATOM
M  V30 1 C 0.0 0.0 0.0 0
M  V30 2 C -0.7336 1.3951 0.0 0
M  V30 3 C 1.371 -0.036 0.0 0
M  V30 4 C -0.8899 -1.1064 0.0 0
M  V30 5 C -2.273 1.5995 0.0 0 CFG=2
M  V30 6 C 2.1046 1.2387 0.0 0
M  V30 7 C -3.8124 1.804 0.0 0
M  V30 8 C -3.0066 2.9946 0.0 0 CFG=2
M  V30 9 C 1.371 2.6338 0.0 0
M  V30 10 C -5.3398 2.1407 0.0 0
M  V30 11 C -4.5942 0.6253 0.0 0
M  V30 12 C -2.261 4.2695 0.0 0
M  V30 13 C -0.1683 2.8383 0.0 0
M  V30 14 C -0.8899 4.2334 0.0 0
M  V30 15 C -1.6236 2.4173 0.0 0
M  V30 END ATOM
M  V30 BEGIN BOND
M  V30 1 2 1 2
M  V30 2 1 1 3
M  V30 3 1 1 4
M  V30 4 1 2 5
M  V30 5 1 3 6
M  V30 6 1 5 7 CFG=3
M  V30 7 1 5 8
M  V30 8 1 6 9
M  V30 9 1 7 10
M  V30 10 1 7 11
M  V30 11 1 8 12
M  V30 12 2 9 13
M  V30 13 1 12 14
M  V30 14 1 13 15
M  V30 15 1 8 7 CFG=3
M  V30 16 1 13 14
M  V30 END BOND
M  V30 BEGIN COLLECTION
M  V30 MDLV30/STERAC1 ATOMS=(2 5 8)
M  V30 END COLLECTION
M  V30 END CTAB
M  END
>  <Molecule Name>
bicyclogermacrene

>  <Molecule Name 2>
bicyclogermacrene

>  <Database>
Essential Oil Database

>  <InChI>
InChI=1S/C15H24/c1-11-6-5-7-12(2)10-14-13(9-8-11)15(14,3)4/h6,10,13-14H,5,7-9H2,1-4H3/b11-6-,12-10+/t13-,14+/m1/s1

>  <InChI-Key>
VPDZRSSKICPUEY-PWYDEKCSSA-N

>  <Smiles>
CC1(C)[C@H]2/C=C(\C)/CC/C=C(\C)/CC[C@@H]12

>  <Molecular Formula>
C15H24

$$$$
cis-sesquisabinene hydrate
Actelion Java MolfileCreator 2.0

  0  0  0  0  0  0              0 V3000
M  V30 BEGIN CTAB
M  V30 COUNTS 16 17 0 0 0
M  V30 BEGIN ATOM
M  V30 1 O 0.0 0.0 0.0 0
M  V30 2 C -1.3682 -0.6963 0.0 0 CFG=2
M  V30 3 C -2.8709 -1.0872 0.0 0
M  V30 4 C -0.5986 -1.808 0.0 0
M  V30 5 C -2.089 0.7452 0.0 0
M  V30 6 C -2.9564 -2.4921 0.0 0 CFG=2
M  V30 7 C -4.2391 -1.7836 0.0 0
M  V30 8 C -1.5392 -2.9197 0.0 0
M  V30 9 C -3.6772 -3.7627 0.0 0
M  V30 10 C -5.2409 -3.836 0.0 0
M  V30 11 C -2.9075 -4.8744 0.0 0
M  V30 12 C -5.9617 -5.1065 0.0 0
M  V30 13 C -7.5254 -5.1798 0.0 0
M  V30 14 C -8.4661 -3.8971 0.0 0
M  V30 15 C -10.0298 -3.9704 0.0 0
M  V30 16 C -7.9163 -2.4555 0.0 0
M  V30 END ATOM
M  V30 BEGIN BOND
M  V30 1 1 2 1 CFG=1
M  V30 2 1 2 3
M  V30 3 1 2 4
M  V30 4 1 2 5
M  V30 5 1 3 6
M  V30 6 1 3 7
M  V30 7 1 4 8
M  V30 8 1 6 9 CFG=3
M  V30 9 1 9 10
M  V30 10 1 9 11
M  V30 11 1 10 12
M  V30 12 1 12 13
M  V30 13 2 13 14
M  V30 14 1 14 15
M  V30 15 1 14 16
M  V30 16 1 6 7
M  V30 17 1 6 8
M  V30 END BOND
M  V30 BEGIN COLLECTION
M  V30 MDLV30/STERAC1 ATOMS=(2 2 6)
M  V30 END COLLECTION
M  V30 END CTAB
M  END
>  <Molecule Name>
cis-sesquisabinene hydrate

>  <Molecule Name 2>
cis-sesquisabinene hydrate

>  <Database>
Essential Oil Database

>  <InChI>
InChI=1S/C15H26O/c1-11(2)6-5-7-12(3)15-9-8-14(4,16)13(15)10-15/h6,12-13,16H,5,7-10H2,1-4H3/t12?,13?,14-,15-/m0/s1

>  <InChI-Key>
IRDFGGRWKUKANK-WUCCLRPBSA-N

>  <Smiles>
CC(CCC=C(C)C)[C@@](C1)(CC2)C1[C@@]2(C)O

>  <Molecular Formula>
C15H26O

$$$$
cannabidiol
Actelion Java MolfileCreator 2.0

  0  0  0  0  0  0              0 V3000
M  V30 BEGIN CTAB
M  V30 COUNTS 23 24 0 0 0
M  V30 BEGIN ATOM
M  V30 1 O 0.0 0.0 0.0 0
M  V30 2 C -1.4074 -0.5937 0.0 0
M  V30 3 C -1.5174 -1.9682 0.0 0
M  V30 4 C -2.8149 0.3078 0.0 0
M  V30 5 C -2.9248 -2.551 0.0 0
M  V30 6 C -0.3298 -2.551 0.0 0
M  V30 7 C -4.2223 -0.2858 0.0 0
M  V30 8 O -3.9474 -3.6615 0.0 0
M  V30 9 C -4.3323 -1.6603 0.0 0
M  V30 10 C 0.8576 -1.6603 0.0 0
M  V30 11 C -0.4398 -3.9254 0.0 0 CFG=1
M  V30 12 C -5.6298 0.6157 0.0 0
M  V30 13 C 2.0452 -2.2431 0.0 0
M  V30 14 C -1.8472 -4.5082 0.0 0
M  V30 15 C 0.7477 -4.5082 0.0 0
M  V30 16 C -7.0372 0.0219 0.0 0
M  V30 17 C 1.9352 -3.6176 0.0 0
M  V30 18 C 3.2327 -1.3524 0.0 0
M  V30 19 C -1.9572 -5.8827 0.0 0
M  V30 20 C -3.2547 -3.6176 0.0 0
M  V30 21 C -8.4447 0.9236 0.0 0
M  V30 22 C -9.8522 0.3298 0.0 0
M  V30 23 C -11.2596 1.2315 0.0 0
M  V30 END ATOM
M  V30 BEGIN BOND
M  V30 1 1 1 2
M  V30 2 2 2 3
M  V30 3 1 2 4
M  V30 4 1 3 5
M  V30 5 1 3 6
M  V30 6 2 4 7
M  V30 7 1 5 8
M  V30 8 2 5 9
M  V30 9 1 6 10
M  V30 10 1 6 11
M  V30 11 1 7 12
M  V30 12 2 10 13
M  V30 13 1 11 14 CFG=3
M  V30 14 1 11 15
M  V30 15 1 12 16
M  V30 16 1 13 17
M  V30 17 1 13 18
M  V30 18 2 14 19
M  V30 19 1 14 20
M  V30 20 1 16 21
M  V30 21 1 21 22
M  V30 22 1 22 23
M  V30 23 1 7 9
M  V30 24 1 15 17
M  V30 END BOND
M  V30 BEGIN COLLECTION
M  V30 MDLV30/STERAC1 ATOMS=(1 11)
M  V30 END COLLECTION
M  V30 END CTAB
M  END
>  <Molecule Name>
cannabidiol

>  <Molecule Name 2>
cannabidiol

>  <Database>
Essential Oil Database

>  <InChI>
InChI=1S/C21H30O2/c1-5-6-7-8-16-12-19(22)21(20(23)13-16)18-11-15(4)9-10-17(18)14(2)3/h11-13,17-18,22-23H,2,5-10H2,1,3-4H3/t17-,18?/m1/s1

>  <InChI-Key>
QHMBSVQNZZTUGM-QNSVNVJESA-N

>  <Smiles>
CCCCCc1cc(O)c(C2C=C(C)CCC2C(C)=C)c(O)c1

>  <Molecular Formula>
C21H30O2

$$$$
delta-9-tetrahydrocannabinol
Actelion Java MolfileCreator 2.0

  0  0  0  0  0  0              0 V3000
M  V30 BEGIN CTAB
M  V30 COUNTS 23 25 0 0 0
M  V30 BEGIN ATOM
M  V30 1 O 0.0 0.0 0.0 0
M  V30 2 C -0.127 1.626 0.0 0
M  V30 3 C 1.1559 -0.6732 0.0 0
M  V30 4 C 1.0289 2.4517 0.0 0
M  V30 5 C -1.537 2.4517 0.0 0
M  V30 6 C 2.3119 0.1397 0.0 0 CFG=1
M  V30 7 C 1.9562 -1.6641 0.0 0
M  V30 8 C 0.1016 -1.6641 0.0 0
M  V30 9 C 0.9019 4.0777 0.0 0
M  V30 10 C 2.1849 1.7784 0.0 0 CFG=1
M  V30 11 C -1.6641 4.0777 0.0 0
M  V30 12 C 3.4679 -0.5335 0.0 0
M  V30 13 O 2.0579 4.9034 0.0 0
M  V30 14 C -0.5081 4.9034 0.0 0
M  V30 15 C 3.3409 2.6041 0.0 0
M  V30 16 C -3.0741 4.9034 0.0 0
M  V30 17 C 4.6239 0.2794 0.0 0
M  V30 18 C 4.4969 1.9308 0.0 0
M  V30 19 C -4.4842 4.2174 0.0 0
M  V30 20 C 5.6528 2.7565 0.0 0
M  V30 21 C -5.8942 5.0431 0.0 0
M  V30 22 C -7.3042 4.3571 0.0 0
M  V30 23 C -8.7143 5.1828 0.0 0
M  V30 END ATOM
M  V30 BEGIN BOND
M  V30 1 1 1 2
M  V30 2 1 1 3
M  V30 3 2 2 4
M  V30 4 1 2 5
M  V30 5 1 3 6
M  V30 6 1 3 7
M  V30 7 1 3 8
M  V30 8 1 4 9
M  V30 9 1 4 10
M  V30 10 2 5 11
M  V30 11 1 6 12 CFG=1
M  V30 12 1 9 13
M  V30 13 2 9 14
M  V30 14 1 10 15 CFG=3
M  V30 15 1 11 16
M  V30 16 1 12 17
M  V30 17 2 15 18
M  V30 18 1 16 19
M  V30 19 1 18 20
M  V30 20 1 19 21
M  V30 21 1 21 22
M  V30 22 1 22 23
M  V30 23 1 6 10
M  V30 24 1 11 14
M  V30 25 1 17 18
M  V30 END BOND
M  V30 BEGIN COLLECTION
M  V30 MDLV30/STERAC1 ATOMS=(2 6 10)
M  V30 END COLLECTION
M  V30 END CTAB
M  END
>  <Molecule Name>
delta-9-tetrahydrocannabinol

>  <Molecule Name 2>
delta-9-tetrahydrocannabinol

>  <Database>
Essential Oil Database

>  <InChI>
InChI=1S/C21H30O2/c1-5-6-7-8-15-12-18(22)20-16-11-14(2)9-10-17(16)21(3,4)23-19(20)13-15/h11-13,16-17,22H,5-10H2,1-4H3/t16-,17-/m1/s1

>  <InChI-Key>
CYQFCXCEBYINGO-IAGOWNOFSA-N

>  <Smiles>
CCCCCc1cc(OC(C)(C)[C@H]2[C@H]3C=C(C)CC2)c3c(O)c1

>  <Molecular Formula>
C21H30O2

$$$$
cannabichromene
Actelion Java MolfileCreator 2.0

  0  0  0  0  0  0              0 V3000
M  V30 BEGIN CTAB
M  V30 COUNTS 23 24 0 0 0
M  V30 BEGIN ATOM
M  V30 1 O 0.0 0.0 0.0 0
M  V30 2 C -1.3796 0.8078 0.0 0
M  V30 3 C 1.131 0.8078 0.0 0 CFG=2
M  V30 4 C -1.5038 2.3987 0.0 0
M  V30 5 C -2.7592 0.1367 0.0 0
M  V30 6 C 1.0067 2.3987 0.0 0
M  V30 7 C 1.5411 -0.435 0.0 0
M  V30 8 C 2.4484 1.2055 0.0 0
M  V30 9 C -2.8834 3.219 0.0 0
M  V30 10 C -0.3728 3.219 0.0 0
M  V30 11 C -4.1388 0.9445 0.0 0
M  V30 12 C 2.8586 -0.5841 0.0 0
M  V30 13 O -3.0077 4.8099 0.0 0
M  V30 14 C -4.263 2.5479 0.0 0
M  V30 15 C -5.5184 0.2734 0.0 0
M  V30 16 C 3.6416 0.6338 0.0 0
M  V30 17 C -6.898 1.0813 0.0 0
M  V30 18 C 4.9591 0.4847 0.0 0
M  V30 19 C -8.2776 0.4101 0.0 0
M  V30 20 C 5.7421 1.7027 0.0 0
M  V30 21 C 5.3692 -0.7581 0.0 0
M  V30 22 C -9.6572 1.218 0.0 0
M  V30 23 C -11.0368 0.5468 0.0 0
M  V30 END ATOM
M  V30 BEGIN BOND
M  V30 1 1 1 2
M  V30 2 1 1 3
M  V30 3 2 2 4
M  V30 4 1 2 5
M  V30 5 1 3 6
M  V30 6 1 3 7
M  V30 7 1 3 8 CFG=1
M  V30 8 1 4 9
M  V30 9 1 4 10
M  V30 10 2 5 11
M  V30 11 1 7 12
M  V30 12 1 9 13
M  V30 13 2 9 14
M  V30 14 1 11 15
M  V30 15 1 12 16
M  V30 16 1 15 17
M  V30 17 2 16 18
M  V30 18 1 17 19
M  V30 19 1 18 20
M  V30 20 1 18 21
M  V30 21 1 19 22
M  V30 22 1 22 23
M  V30 23 2 6 10
M  V30 24 1 11 14
M  V30 END BOND
M  V30 BEGIN COLLECTION
M  V30 MDLV30/STERAC1 ATOMS=(1 3)
M  V30 END COLLECTION
M  V30 END CTAB
M  END
>  <Molecule Name>
cannabichromene

>  <Molecule Name 2>
cannabichromene

>  <Database>
Essential Oil Database

>  <InChI>
InChI=1S/C21H30O2/c1-5-6-7-10-17-14-19(22)18-11-13-21(4,23-20(18)15-17)12-8-9-16(2)3/h9,11,13-15,22H,5-8,10,12H2,1-4H3/t21-/m0/s1

>  <InChI-Key>
UVOLYTDXHDXWJU-NRFANRHFSA-N

>  <Smiles>
CCCCCc1cc(OC(C)(CCC=C(C)C)C=C2)c2c(O)c1

>  <Molecular Formula>
C21H30O2

$$$$
myrtenyl acetate
Actelion Java MolfileCreator 2.0

  0  0  0  0  0  0              0 V3000
M  V30 BEGIN CTAB
M  V30 COUNTS 14 15 0 0 0
M  V30 BEGIN ATOM
M  V30 1 O 0.0 0.0 0.0 0
M  V30 2 C -1.6792 0.1443 0.0 0
M  V30 3 O -2.5319 -1.0495 0.0 0
M  V30 4 C -2.5319 1.6005 0.0 0
M  V30 5 C -1.8366 -2.2433 0.0 0
M  V30 6 C -2.6894 -3.4371 0.0 0
M  V30 7 C -1.994 -4.631 0.0 0
M  V30 8 C -4.3686 -3.2928 0.0 0 CFG=2
M  V30 9 C -2.8468 -5.8248 0.0 0
M  V30 10 C -5.2213 -4.4867 0.0 0
M  V30 11 C -4.6441 -4.5523 0.0 0
M  V30 12 C -4.526 -5.6805 0.0 0 CFG=1
M  V30 13 C -6.7038 -3.647 0.0 0
M  V30 14 C -6.7038 -5.1295 0.0 0
M  V30 END ATOM
M  V30 BEGIN BOND
M  V30 1 2 1 2
M  V30 2 1 2 3
M  V30 3 1 2 4
M  V30 4 1 3 5
M  V30 5 1 5 6
M  V30 6 2 6 7
M  V30 7 1 8 6 CFG=1
M  V30 8 1 7 9
M  V30 9 1 8 10
M  V30 10 1 8 11
M  V30 11 1 12 9 CFG=1
M  V30 12 1 10 13
M  V30 13 1 10 14
M  V30 14 1 10 12
M  V30 15 1 11 12
M  V30 END BOND
M  V30 BEGIN COLLECTION
M  V30 MDLV30/STERAC1 ATOMS=(2 8 12)
M  V30 END COLLECTION
M  V30 END CTAB
M  END
>  <Molecule Name>
myrtenyl acetate

>  <Molecule Name 2>
myrtenyl acetate

>  <Database>
Essential Oil Database

>  <InChI>
InChI=1S/C12H18O2/c1-8(13)14-7-9-4-5-10-6-11(9)12(10,2)3/h4,10-11H,5-7H2,1-3H3/t10-,11-/m1/s1

>  <InChI-Key>
BKATZVAUANSCKN-GHMZBOCLSA-N

>  <Smiles>
CC1(C)[C@H]2C(COC(C)=O)=CC[C@@H]1C2

>  <Molecular Formula>
C12H18O2

$$$$
verbenone
Actelion Java MolfileCreator 2.0

  0  0  0  0  0  0              0 V3000
M  V30 BEGIN CTAB
M  V30 COUNTS 11 12 0 0 0
M  V30 BEGIN ATOM
M  V30 1 O 0.0 0.0 0.0 0
M  V30 2 C -0.7729 1.3405 0.0 0
M  V30 3 C -0.1207 2.6811 0.0 0
M  V30 4 C -2.3188 1.4734 0.0 0 CFG=2
M  V30 5 C -0.9057 4.0217 0.0 0
M  V30 6 C -3.1038 2.814 0.0 0
M  V30 7 C -2.5603 2.7536 0.0 0
M  V30 8 C -2.4516 4.1546 0.0 0 CFG=1
M  V30 9 C -0.2536 5.3623 0.0 0
M  V30 10 C -4.4686 3.599 0.0 0
M  V30 11 C -4.4686 2.2222 0.0 0
M  V30 END ATOM
M  V30 BEGIN BOND
M  V30 1 2 1 2
M  V30 2 1 2 3
M  V30 3 1 4 2 CFG=3
M  V30 4 2 3 5
M  V30 5 1 4 6
M  V30 6 1 4 7
M  V30 7 1 8 5 CFG=3
M  V30 8 1 5 9
M  V30 9 1 6 10
M  V30 10 1 6 11
M  V30 11 1 6 8
M  V30 12 1 7 8
M  V30 END BOND
M  V30 BEGIN COLLECTION
M  V30 MDLV30/STERAC1 ATOMS=(2 4 8)
M  V30 END COLLECTION
M  V30 END CTAB
M  END
>  <Molecule Name>
verbenone

>  <Molecule Name 2>
verbenone

>  <Database>
Essential Oil Database

>  <InChI>
InChI=1S/C10H14O/c1-6-4-9(11)8-5-7(6)10(8,2)3/h4,7-8H,5H2,1-3H3/t7-,8+/m0/s1

>  <InChI-Key>
DCSCXTJOXBUFGB-JGVFFNPUSA-N

>  <Smiles>
CC(C)([C@@H](C1)C(C)=C2)[C@H]1C2=O

>  <Molecular Formula>
C10H14O

$$$$
2,2,6-trimethylcyclohexanone
Actelion Java MolfileCreator 2.0

  0  0  0  0  0  0              0 V3000
M  V30 BEGIN CTAB
M  V30 COUNTS 10 10 0 0 0
M  V30 BEGIN ATOM
M  V30 1 O 0.0 0.0 0.0 0
M  V30 2 C 1.2337 -0.6168 0.0 0
M  V30 3 C 2.4675 0.3026 0.0 0
M  V30 4 C 1.1173 -2.0485 0.0 0 CFG=2
M  V30 5 C 3.7013 -0.3142 0.0 0
M  V30 6 C 1.6062 1.7924 0.0 0
M  V30 7 C 3.0495 1.7924 0.0 0
M  V30 8 C 2.3511 -2.6654 0.0 0
M  V30 9 C -0.3491 -2.6654 0.0 0
M  V30 10 C 3.5849 -1.7459 0.0 0
M  V30 END ATOM
M  V30 BEGIN BOND
M  V30 1 2 1 2
M  V30 2 1 2 3
M  V30 3 1 2 4
M  V30 4 1 3 5
M  V30 5 1 3 6
M  V30 6 1 3 7
M  V30 7 1 4 8
M  V30 8 1 4 9 CFG=3
M  V30 9 1 5 10
M  V30 10 1 8 10
M  V30 END BOND
M  V30 BEGIN COLLECTION
M  V30 MDLV30/STERAC1 ATOMS=(1 4)
M  V30 END COLLECTION
M  V30 END CTAB
M  END
>  <Molecule Name>
2,2,6-trimethylcyclohexanone

>  <Molecule Name 2>
2,2,6-trimethylcyclohexanone

>  <Database>
Essential Oil Database

>  <InChI>
InChI=1S/C9H16O/c1-7-5-4-6-9(2,3)8(7)10/h7H,4-6H2,1-3H3/t7-/m0/s1

>  <InChI-Key>
ZPVOLGVTNLDBFI-ZETCQYMHSA-N

>  <Smiles>
CC(CCCC1(C)C)C1=O

>  <Molecular Formula>
C9H16O

$$$$
cuminal
Actelion Java MolfileCreator 2.0

  0  0  0  0  0  0              0 V3000
M  V30 BEGIN CTAB
M  V30 COUNTS 11 11 0 0 0
M  V30 BEGIN ATOM
M  V30 1 O 0.0 0.0 0.0 0
M  V30 2 C -1.3436 0.7747 0.0 0
M  V30 3 C -1.4647 2.3241 0.0 0
M  V30 4 C -0.3631 3.1109 0.0 0
M  V30 5 C -2.8083 3.1109 0.0 0
M  V30 6 C -0.4841 4.6604 0.0 0
M  V30 7 C -2.9294 4.6604 0.0 0
M  V30 8 C -1.8278 5.4472 0.0 0
M  V30 9 C -1.9489 6.9966 0.0 0
M  V30 10 C -3.2925 7.7835 0.0 0
M  V30 11 C -0.8473 7.7835 0.0 0
M  V30 END ATOM
M  V30 BEGIN BOND
M  V30 1 2 1 2
M  V30 2 1 2 3
M  V30 3 2 3 4
M  V30 4 1 3 5
M  V30 5 1 4 6
M  V30 6 2 5 7
M  V30 7 2 6 8
M  V30 8 1 8 9
M  V30 9 1 9 10
M  V30 10 1 9 11
M  V30 11 1 7 8
M  V30 END BOND
M  V30 END CTAB
M  END
>  <Molecule Name>
cuminal

>  <Molecule Name 2>
cuminal

>  <Database>
Essential Oil Database

>  <InChI>
InChI=1S/C10H12O/c1-8(2)10-5-3-9(7-11)4-6-10/h3-8H,1-2H3

>  <InChI-Key>
WTWBUQJHJGUZCY-UHFFFAOYSA-N

>  <Smiles>
CC(C)c1ccc(C=O)cc1

>  <Molecular Formula>
C10H12O

$$$$
gamma-muurolene
Actelion Java MolfileCreator 2.0

  0  0  0  0  0  0              0 V3000
M  V30 BEGIN CTAB
M  V30 COUNTS 15 16 0 0 0
M  V30 BEGIN ATOM
M  V30 1 C 0.0 0.0 0.0 0
M  V30 2 C -0.1341 1.7174 0.0 0
M  V30 3 C 1.221 -0.7111 0.0 0 CFG=2
M  V30 4 C -1.4893 -0.7111 0.0 0
M  V30 5 C 1.0868 -2.1602 0.0 0 CFG=1
M  V30 6 C 2.442 0.1475 0.0 0
M  V30 7 C -1.6235 -2.1602 0.0 0
M  V30 8 C 2.3078 -2.8848 0.0 0
M  V30 9 C -0.4025 -2.8848 0.0 0 CFG=1
M  V30 10 C 3.663 -0.5635 0.0 0
M  V30 11 C 3.5288 -1.9992 0.0 0
M  V30 12 C -0.5367 -4.3339 0.0 0
M  V30 13 C 4.7498 -2.7238 0.0 0
M  V30 14 C 0.6843 -5.0585 0.0 0
M  V30 15 C -2.026 -5.0585 0.0 0
M  V30 END ATOM
M  V30 BEGIN BOND
M  V30 1 2 1 2
M  V30 2 1 1 3
M  V30 3 1 1 4
M  V30 4 1 3 5
M  V30 5 1 3 6 CFG=1
M  V30 6 1 4 7
M  V30 7 1 5 8 CFG=1
M  V30 8 1 5 9
M  V30 9 1 6 10
M  V30 10 2 8 11
M  V30 11 1 9 12 CFG=3
M  V30 12 1 11 13
M  V30 13 1 12 14
M  V30 14 1 12 15
M  V30 15 1 7 9
M  V30 16 1 10 11
M  V30 END BOND
M  V30 BEGIN COLLECTION
M  V30 MDLV30/STERAC1 ATOMS=(3 3 5 9)
M  V30 END COLLECTION
M  V30 END CTAB
M  END
>  <Molecule Name>
gamma-muurolene

>  <Molecule Name 2>
gamma-muurolene

>  <Database>
Essential Oil Database

>  <InChI>
InChI=1S/C15H24/c1-10(2)13-8-6-12(4)14-7-5-11(3)9-15(13)14/h9-10,13-15H,4-8H2,1-3H3/t13-,14+,15-/m0/s1

>  <InChI-Key>
WRHGORWNJGOVQY-ZNMIVQPWSA-N

>  <Smiles>
CC(C)[C@H](CC1)[C@@H]2C=C(C)CC[C@@H]2C1=C

>  <Molecular Formula>
C15H24

$$$$
isocyclocitral
Actelion Java MolfileCreator 2.0

  0  0  0  0  0  0              0 V3000
M  V30 BEGIN CTAB
M  V30 COUNTS 11 11 0 0 0
M  V30 BEGIN ATOM
M  V30 1 O 0.0 0.0 0.0 0
M  V30 2 C -0.1237 -1.3366 0.0 0
M  V30 3 C -1.4975 -1.9925 0.0 0
M  V30 4 C -2.8712 -1.1757 0.0 0
M  V30 5 C -1.6212 -3.3291 0.0 0
M  V30 6 C -4.245 -1.8316 0.0 0
M  V30 7 C -2.995 0.4084 0.0 0
M  V30 8 C -2.995 -3.9851 0.0 0
M  V30 9 C -4.3687 -3.1682 0.0 0
M  V30 10 C -5.6187 -1.0148 0.0 0
M  V30 11 C -5.7425 -3.8242 0.0 0
M  V30 END ATOM
M  V30 BEGIN BOND
M  V30 1 2 1 2
M  V30 2 1 2 3
M  V30 3 1 3 4
M  V30 4 1 3 5
M  V30 5 1 4 6
M  V30 6 1 4 7
M  V30 7 1 5 8
M  V30 8 1 6 9
M  V30 9 1 6 10
M  V30 10 1 9 11
M  V30 11 2 8 9
M  V30 END BOND
M  V30 END CTAB
M  END
>  <Molecule Name>
isocyclocitral

>  <Molecule Name 2>
isocyclocitral

>  <Database>
Essential Oil Database

>  <InChI>
InChI=1S/C10H16O/c1-7-4-5-10(6-11)9(3)8(7)2/h4,6,8-10H,5H2,1-3H3

>  <InChI-Key>
WOWFVHVOZAVABO-UHFFFAOYSA-N

>  <Smiles>
CC(C(C)C(C)=CC1)C1C=O

>  <Molecular Formula>
C10H16O

$$$$
2-methyl-2-butenol
Actelion Java MolfileCreator 2.0

  0  0  0  0  0  0              0 V3000
M  V30 BEGIN CTAB
M  V30 COUNTS 6 5 0 0 0
M  V30 BEGIN ATOM
M  V30 1 O 0.0 0.0 0.0 0
M  V30 2 C 0.7071 -1.2142 0.0 0
M  V30 3 C -0.1467 -2.4284 0.0 0
M  V30 4 C -1.8546 -2.295 0.0 0
M  V30 5 C 0.5604 -3.6426 0.0 0
M  V30 6 C -2.7219 -3.5092 0.0 0
M  V30 END ATOM
M  V30 BEGIN BOND
M  V30 1 1 1 2
M  V30 2 1 2 3
M  V30 3 2 3 4
M  V30 4 1 3 5
M  V30 5 1 4 6
M  V30 END BOND
M  V30 END CTAB
M  END
>  <Molecule Name>
2-methyl-2-butenol

>  <Molecule Name 2>
2-methyl-2-butenol

>  <Database>
Essential Oil Database

>  <InChI>
InChI=1S/C5H10O/c1-3-5(2)4-6/h3,6H,4H2,1-2H3/b5-3+

>  <InChI-Key>
NEJDKFPXHQRVMV-HWKANZROSA-N

>  <Smiles>
C/C=C(\C)/CO

>  <Molecular Formula>
C5H10O

$$$$
2-methylbutyric acid
Actelion Java MolfileCreator 2.0

  0  0  0  0  0  0              0 V3000
M  V30 BEGIN CTAB
M  V30 COUNTS 7 6 0 0 0
M  V30 BEGIN ATOM
M  V30 1 O 0.0 0.0 0.0 0
M  V30 2 C -1.6101 0.1257 0.0 0
M  V30 3 O -2.4403 1.522 0.0 0
M  V30 4 C -2.4403 -1.0189 0.0 0 CFG=2
M  V30 5 C -1.7736 -2.1636 0.0 0
M  V30 6 C -4.0504 -0.8931 0.0 0
M  V30 7 C -2.5912 -3.3082 0.0 0
M  V30 END ATOM
M  V30 BEGIN BOND
M  V30 1 2 1 2
M  V30 2 1 2 3
M  V30 3 1 2 4
M  V30 4 1 4 5
M  V30 5 1 4 6 CFG=3
M  V30 6 1 5 7
M  V30 END BOND
M  V30 BEGIN COLLECTION
M  V30 MDLV30/STERAC1 ATOMS=(1 4)
M  V30 END COLLECTION
M  V30 END CTAB
M  END
>  <Molecule Name>
2-methylbutyric acid

>  <Molecule Name 2>
2-methylbutyric acid

>  <Database>
Essential Oil Database

>  <InChI>
InChI=1S/C5H10O2/c1-3-4(2)5(6)7/h4H,3H2,1-2H3,(H,6,7)/t4-/m0/s1

>  <InChI-Key>
WLAMNBDJUVNPJU-BYPYZUCNSA-N

>  <Smiles>
CCC(C)C(O)=O

>  <Molecular Formula>
C5H10O2

$$$$
butyric acid
Actelion Java MolfileCreator 2.0

  0  0  0  0  0  0              0 V3000
M  V30 BEGIN CTAB
M  V30 COUNTS 6 5 0 0 0
M  V30 BEGIN ATOM
M  V30 1 O 0.0 0.0 0.0 0
M  V30 2 C 1.3904 0.1112 0.0 0
M  V30 3 O 1.9799 -1.09 0.0 0
M  V30 4 C 1.9799 1.535 0.0 0
M  V30 5 C 1.0789 2.9588 0.0 0
M  V30 6 C 1.6685 4.3826 0.0 0
M  V30 END ATOM
M  V30 BEGIN BOND
M  V30 1 2 1 2
M  V30 2 1 2 3
M  V30 3 1 2 4
M  V30 4 1 4 5
M  V30 5 1 5 6
M  V30 END BOND
M  V30 END CTAB
M  END
>  <Molecule Name>
butyric acid

>  <Molecule Name 2>
butyric acid

>  <Database>
Essential Oil Database

>  <InChI>
InChI=1S/C4H8O2/c1-2-3-4(5)6/h2-3H2,1H3,(H,5,6)

>  <InChI-Key>
FERIUCNNQQJTOY-UHFFFAOYSA-N

>  <Smiles>
CCCC(O)=O

>  <Molecular Formula>
C4H8O2

$$$$
cyclohexane
Actelion Java MolfileCreator 2.0

  0  0  0  0  0  0              0 V3000
M  V30 BEGIN CTAB
M  V30 COUNTS 6 6 0 0 0
M  V30 BEGIN ATOM
M  V30 1 C 0.0 0.0 0.0 0
M  V30 2 C 1.2648 -0.6207 0.0 0
M  V30 3 C -1.499 -0.6207 0.0 0
M  V30 4 C 1.1477 -2.0846 0.0 0
M  V30 5 C -1.6161 -2.0846 0.0 0
M  V30 6 C -0.3513 -2.7053 0.0 0
M  V30 END ATOM
M  V30 BEGIN BOND
M  V30 1 1 1 2
M  V30 2 1 1 3
M  V30 3 1 2 4
M  V30 4 1 3 5
M  V30 5 1 4 6
M  V30 6 1 5 6
M  V30 END BOND
M  V30 END CTAB
M  END
>  <Molecule Name>
cyclohexane

>  <Molecule Name 2>
cyclohexane

>  <Database>
Essential Oil Database

>  <InChI>
InChI=1S/C6H12/c1-2-4-6-5-3-1/h1-6H2

>  <InChI-Key>
XDTMQSROBMDMFD-UHFFFAOYSA-N

>  <Smiles>
C1CCCCC1

>  <Molecular Formula>
C6H12

$$$$
beta-gurjunene
Actelion Java MolfileCreator 2.0

  0  0  0  0  0  0              0 V3000
M  V30 BEGIN CTAB
M  V30 COUNTS 15 17 0 0 0
M  V30 BEGIN ATOM
M  V30 1 C 0.0 0.0 0.0 0
M  V30 2 C 0.2807 -1.327 0.0 0
M  V30 3 C 0.7911 1.2632 0.0 0 CFG=1
M  V30 4 C -1.5184 0.7145 0.0 0
M  V30 5 C -0.102 2.6412 0.0 0 CFG=1
M  V30 6 C 2.1691 1.2249 0.0 0 CFG=1
M  V30 7 C -1.5439 2.3478 0.0 0
M  V30 8 C 0.2934 4.1852 0.0 0 CFG=2
M  V30 9 C 3.4961 0.9442 0.0 0
M  V30 10 C 3.0623 2.3988 0.0 0 CFG=1
M  V30 11 C 1.5822 4.8614 0.0 0
M  V30 12 C -0.8804 5.3336 0.0 0
M  V30 13 C 3.662 -0.4083 0.0 0
M  V30 14 C 4.8487 0.8038 0.0 0
M  V30 15 C 2.7433 4.0193 0.0 0
M  V30 END ATOM
M  V30 BEGIN BOND
M  V30 1 2 1 2
M  V30 2 1 3 1 CFG=1
M  V30 3 1 1 4
M  V30 4 1 3 5
M  V30 5 1 3 6
M  V30 6 1 4 7
M  V30 7 1 5 8
M  V30 8 1 6 9 CFG=3
M  V30 9 1 6 10
M  V30 10 1 8 11
M  V30 11 1 8 12 CFG=1
M  V30 12 1 9 13
M  V30 13 1 9 14
M  V30 14 1 10 15 CFG=3
M  V30 15 1 5 7 CFG=1
M  V30 16 1 9 10
M  V30 17 1 11 15
M  V30 END BOND
M  V30 BEGIN COLLECTION
M  V30 MDLV30/STERAC1 ATOMS=(5 3 5 6 8 10)
M  V30 END COLLECTION
M  V30 END CTAB
M  END
>  <Molecule Name>
beta-gurjunene

>  <Molecule Name 2>
beta-gurjunene

>  <Database>
Essential Oil Database

>  <InChI>
InChI=1S/C15H24/c1-9-6-8-12-14(15(12,3)4)13-10(2)5-7-11(9)13/h9,11-14H,2,5-8H2,1,3-4H3/t9-,11-,12-,13-,14-/m0/s1

>  <InChI-Key>
IRCZVRWQUNZGSH-YGTGSIHKSA-N

>  <Smiles>
C[C@@H](CC[C@@H]1C(C)(C)[C@@H]11)[C@H](CC2)[C@@H]1C2=C

>  <Molecular Formula>
C15H24

$$$$
gamma-cadinene
Actelion Java MolfileCreator 2.0

  0  0  0  0  0  0              0 V3000
M  V30 BEGIN CTAB
M  V30 COUNTS 15 16 0 0 0
M  V30 BEGIN ATOM
M  V30 1 C 0.0 0.0 0.0 0
M  V30 2 C -0.1341 1.7174 0.0 0
M  V30 3 C 1.221 -0.7111 0.0 0 CFG=1
M  V30 4 C -1.4893 -0.7111 0.0 0
M  V30 5 C 1.0868 -2.1602 0.0 0 CFG=1
M  V30 6 C 2.442 0.1475 0.0 0
M  V30 7 C -1.6235 -2.1602 0.0 0
M  V30 8 C 2.3078 -2.8848 0.0 0
M  V30 9 C -0.4025 -2.8848 0.0 0 CFG=1
M  V30 10 C 3.663 -0.5635 0.0 0
M  V30 11 C 3.5288 -1.9992 0.0 0
M  V30 12 C -0.5367 -4.3339 0.0 0
M  V30 13 C 4.7498 -2.7238 0.0 0
M  V30 14 C 0.6843 -5.0585 0.0 0
M  V30 15 C -2.026 -5.0585 0.0 0
M  V30 END ATOM
M  V30 BEGIN BOND
M  V30 1 2 1 2
M  V30 2 1 1 3
M  V30 3 1 1 4
M  V30 4 1 3 5
M  V30 5 1 3 6 CFG=3
M  V30 6 1 4 7
M  V30 7 1 5 8 CFG=1
M  V30 8 1 5 9
M  V30 9 1 6 10
M  V30 10 2 8 11
M  V30 11 1 9 12 CFG=3
M  V30 12 1 11 13
M  V30 13 1 12 14
M  V30 14 1 12 15
M  V30 15 1 7 9
M  V30 16 1 10 11
M  V30 END BOND
M  V30 BEGIN COLLECTION
M  V30 MDLV30/STERAC1 ATOMS=(3 3 5 9)
M  V30 END COLLECTION
M  V30 END CTAB
M  END
>  <Molecule Name>
gamma-cadinene

>  <Molecule Name 2>
gamma-cadinene

>  <Database>
Essential Oil Database

>  <InChI>
InChI=1S/C15H24/c1-10(2)13-8-6-12(4)14-7-5-11(3)9-15(13)14/h9-10,13-15H,4-8H2,1-3H3/t13-,14-,15-/m0/s1

>  <InChI-Key>
WRHGORWNJGOVQY-KKUMJFAQSA-N

>  <Smiles>
CC(C)[C@H](CC1)[C@@H]2C=C(C)CC[C@H]2C1=C

>  <Molecular Formula>
C15H24

$$$$
3-nonanone
Actelion Java MolfileCreator 2.0

  0  0  0  0  0  0              0 V3000
M  V30 BEGIN CTAB
M  V30 COUNTS 10 9 0 0 0
M  V30 BEGIN ATOM
M  V30 1 O 0.0 0.0 0.0 0
M  V30 2 C -0.1138 -1.4235 0.0 0
M  V30 3 C 1.116 -2.0385 0.0 0
M  V30 4 C -1.5716 -2.0385 0.0 0
M  V30 5 C 2.346 -1.1047 0.0 0
M  V30 6 C -3.0293 -1.1047 0.0 0
M  V30 7 C 3.576 -1.7196 0.0 0
M  V30 8 C 4.806 -0.7858 0.0 0
M  V30 9 C 6.036 -1.4008 0.0 0
M  V30 10 C 7.2659 -0.4669 0.0 0
M  V30 END ATOM
M  V30 BEGIN BOND
M  V30 1 2 1 2
M  V30 2 1 2 3
M  V30 3 1 2 4
M  V30 4 1 3 5
M  V30 5 1 4 6
M  V30 6 1 5 7
M  V30 7 1 7 8
M  V30 8 1 8 9
M  V30 9 1 9 10
M  V30 END BOND
M  V30 END CTAB
M  END
>  <Molecule Name>
3-nonanone

>  <Molecule Name 2>
3-nonanone

>  <Database>
Essential Oil Database

>  <InChI>
InChI=1S/C9H18O/c1-3-5-6-7-8-9(10)4-2/h3-8H2,1-2H3

>  <InChI-Key>
IYTXKIXETAELAV-UHFFFAOYSA-N

>  <Smiles>
CCCCCCC(CC)=O

>  <Molecular Formula>
C9H18O

$$$$
4-nonanol
Actelion Java MolfileCreator 2.0

  0  0  0  0  0  0              0 V3000
M  V30 BEGIN CTAB
M  V30 COUNTS 10 9 0 0 0
M  V30 BEGIN ATOM
M  V30 1 O 0.0 0.0 0.0 0
M  V30 2 C -0.1276 1.6343 0.0 0 CFG=2
M  V30 3 C 1.0342 2.477 0.0 0
M  V30 4 C -1.5449 2.477 0.0 0
M  V30 5 C 2.1961 1.7875 0.0 0
M  V30 6 C -2.9622 1.7875 0.0 0
M  V30 7 C 3.358 2.6175 0.0 0
M  V30 8 C -4.3795 2.6175 0.0 0
M  V30 9 C 4.5199 1.928 0.0 0
M  V30 10 C 5.6818 2.7579 0.0 0
M  V30 END ATOM
M  V30 BEGIN BOND
M  V30 1 1 2 1 CFG=1
M  V30 2 1 2 3
M  V30 3 1 2 4
M  V30 4 1 3 5
M  V30 5 1 4 6
M  V30 6 1 5 7
M  V30 7 1 6 8
M  V30 8 1 7 9
M  V30 9 1 9 10
M  V30 END BOND
M  V30 BEGIN COLLECTION
M  V30 MDLV30/STERAC1 ATOMS=(1 2)
M  V30 END COLLECTION
M  V30 END CTAB
M  END
>  <Molecule Name>
4-nonanol

>  <Molecule Name 2>
4-nonanol

>  <Database>
Essential Oil Database

>  <InChI>
InChI=1S/C9H20O/c1-3-5-6-8-9(10)7-4-2/h9-10H,3-8H2,1-2H3/t9-/m0/s1

>  <InChI-Key>
IXUOEGRSQCCEHB-VIFPVBQESA-N

>  <Smiles>
CCCCCC(CCC)O

>  <Molecular Formula>
C9H20O

$$$$
4-nonanone
Actelion Java MolfileCreator 2.0

  0  0  0  0  0  0              0 V3000
M  V30 BEGIN CTAB
M  V30 COUNTS 10 9 0 0 0
M  V30 BEGIN ATOM
M  V30 1 O 0.0 0.0 0.0 0
M  V30 2 C -0.1276 1.6343 0.0 0
M  V30 3 C 1.0342 2.477 0.0 0
M  V30 4 C -1.5449 2.477 0.0 0
M  V30 5 C 2.1961 1.7875 0.0 0
M  V30 6 C -2.9622 1.7875 0.0 0
M  V30 7 C 3.358 2.6175 0.0 0
M  V30 8 C -4.3795 2.6175 0.0 0
M  V30 9 C 4.5199 1.928 0.0 0
M  V30 10 C 5.6818 2.7579 0.0 0
M  V30 END ATOM
M  V30 BEGIN BOND
M  V30 1 2 1 2
M  V30 2 1 2 3
M  V30 3 1 2 4
M  V30 4 1 3 5
M  V30 5 1 4 6
M  V30 6 1 5 7
M  V30 7 1 6 8
M  V30 8 1 7 9
M  V30 9 1 9 10
M  V30 END BOND
M  V30 END CTAB
M  END
>  <Molecule Name>
4-nonanone

>  <Molecule Name 2>
4-nonanone

>  <Database>
Essential Oil Database

>  <InChI>
InChI=1S/C9H18O/c1-3-5-6-8-9(10)7-4-2/h3-8H2,1-2H3

>  <InChI-Key>
TYBCSQFBSWACAA-UHFFFAOYSA-N

>  <Smiles>
CCCCCC(CCC)=O

>  <Molecular Formula>
C9H18O

$$$$
beta-bisabolol
Actelion Java MolfileCreator 2.0

  0  0  0  0  0  0              0 V3000
M  V30 BEGIN CTAB
M  V30 COUNTS 16 16 0 0 0
M  V30 BEGIN ATOM
M  V30 1 O 0.0 0.0 0.0 0
M  V30 2 C 0.8867 -1.074 0.0 0 CFG=2
M  V30 3 C 1.7734 0.2497 0.0 0 CFG=1
M  V30 4 C -0.5994 -1.7359 0.0 0
M  V30 5 C 2.1231 -1.7359 0.0 0
M  V30 6 C 3.1972 0.0999 0.0 0
M  V30 7 C 1.1115 1.8483 0.0 0
M  V30 8 C -0.7243 -3.1847 0.0 0
M  V30 9 C 1.9982 -3.1847 0.0 0
M  V30 10 C 4.0839 1.4237 0.0 0
M  V30 11 C 0.512 -3.8466 0.0 0
M  V30 12 C 5.5077 1.2738 0.0 0
M  V30 13 C 0.3871 -5.2954 0.0 0
M  V30 14 C 5.9198 -0.0749 0.0 0
M  V30 15 C 7.3436 -0.2248 0.0 0
M  V30 16 C 4.7833 -1.149 0.0 0
M  V30 END ATOM
M  V30 BEGIN BOND
M  V30 1 1 2 1 CFG=1
M  V30 2 1 2 3
M  V30 3 1 2 4
M  V30 4 1 2 5
M  V30 5 1 3 6
M  V30 6 1 3 7 CFG=3
M  V30 7 1 4 8
M  V30 8 1 5 9
M  V30 9 1 6 10
M  V30 10 2 8 11
M  V30 11 1 10 12
M  V30 12 1 11 13
M  V30 13 2 12 14
M  V30 14 1 14 15
M  V30 15 1 14 16
M  V30 16 1 9 11
M  V30 END BOND
M  V30 BEGIN COLLECTION
M  V30 MDLV30/STERAC1 ATOMS=(2 2 3)
M  V30 END COLLECTION
M  V30 END CTAB
M  END
>  <Molecule Name>
beta-bisabolol

>  <Molecule Name 2>
beta-bisabolol

>  <Database>
Essential Oil Database

>  <InChI>
InChI=1S/C15H26O/c1-12(2)6-5-7-14(4)15(16)10-8-13(3)9-11-15/h6,8,14,16H,5,7,9-11H2,1-4H3/t14-,15-/m1/s1

>  <InChI-Key>
WTVHAMTYZJGJLJ-HUUCEWRRSA-N

>  <Smiles>
C[C@H](CCC=C(C)C)[C@]1(CC=C(C)CC1)O

>  <Molecular Formula>
C15H26O

$$$$
beta-copaene
Actelion Java MolfileCreator 2.0

  0  0  0  0  0  0              0 V3000
M  V30 BEGIN CTAB
M  V30 COUNTS 15 17 0 0 0
M  V30 BEGIN ATOM
M  V30 1 C 0.0 0.0 0.0 0
M  V30 2 C -0.1308 1.5828 0.0 0
M  V30 3 C -1.3473 -1.0465 0.0 0 CFG=2
M  V30 4 C 1.0072 -0.968 0.0 0
M  V30 5 C -1.9491 -0.2616 0.0 0 CFG=2
M  V30 6 C -2.5116 -2.2238 0.0 0
M  V30 7 C 0.3793 -2.1715 0.0 0
M  V30 8 C -1.3735 -1.9098 0.0 0 CFG=1
M  V30 9 C -3.4927 0.3662 0.0 0
M  V30 10 C -1.2688 1.0465 0.0 0
M  V30 11 C -4.0683 -2.0145 0.0 0 CFG=2
M  V30 12 C -4.6569 -0.6409 0.0 0
M  V30 13 C -5.0886 -3.0741 0.0 0
M  V30 14 C -4.6831 -4.2907 0.0 0
M  V30 15 C -6.6715 -2.7863 0.0 0
M  V30 END ATOM
M  V30 BEGIN BOND
M  V30 1 2 1 2
M  V30 2 1 3 1 CFG=1
M  V30 3 1 1 4
M  V30 4 1 3 5
M  V30 5 1 3 6
M  V30 6 1 4 7
M  V30 7 1 5 8
M  V30 8 1 5 9
M  V30 9 1 5 10 CFG=1
M  V30 10 1 6 11
M  V30 11 1 9 12
M  V30 12 1 11 13 CFG=1
M  V30 13 1 13 14
M  V30 14 1 13 15
M  V30 15 1 6 8
M  V30 16 1 8 7 CFG=3
M  V30 17 1 11 12
M  V30 END BOND
M  V30 BEGIN COLLECTION
M  V30 MDLV30/STERAC1 ATOMS=(4 3 5 8 11)
M  V30 END COLLECTION
M  V30 END CTAB
M  END
>  <Molecule Name>
beta-copaene

>  <Molecule Name 2>
beta-copaene

>  <Database>
Essential Oil Database

>  <InChI>
InChI=1S/C15H24/c1-9(2)11-7-8-15(4)12-6-5-10(3)14(15)13(11)12/h9,11-14H,3,5-8H2,1-2,4H3/t11-,12-,13?,14+,15+/m1/s1

>  <InChI-Key>
UPVZPMJSRSWJHQ-XQYPFIQKSA-N

>  <Smiles>
CC(C)[C@@H](CC[C@@]1(C)[C@@H]2CC3)C2[C@@H]1C3=C

>  <Molecular Formula>
C15H24

$$$$
2-undecanol
Actelion Java MolfileCreator 2.0

  0  0  0  0  0  0              0 V3000
M  V30 BEGIN CTAB
M  V30 COUNTS 12 11 0 0 0
M  V30 BEGIN ATOM
M  V30 1 O 0.0 0.0 0.0 0
M  V30 2 C -0.1328 1.7008 0.0 0 CFG=2
M  V30 3 C 1.0763 2.5779 0.0 0
M  V30 4 C -1.6078 2.5779 0.0 0
M  V30 5 C 2.2855 1.8603 0.0 0
M  V30 6 C 3.4948 2.7373 0.0 0
M  V30 7 C 4.704 2.0198 0.0 0
M  V30 8 C 5.9132 2.8968 0.0 0
M  V30 9 C 7.1225 2.1792 0.0 0
M  V30 10 C 8.3317 3.043 0.0 0
M  V30 11 C 9.5409 2.3254 0.0 0
M  V30 12 C 10.7502 3.1891 0.0 0
M  V30 END ATOM
M  V30 BEGIN BOND
M  V30 1 1 2 1 CFG=1
M  V30 2 1 2 3
M  V30 3 1 2 4
M  V30 4 1 3 5
M  V30 5 1 5 6
M  V30 6 1 6 7
M  V30 7 1 7 8
M  V30 8 1 8 9
M  V30 9 1 9 10
M  V30 10 1 10 11
M  V30 11 1 11 12
M  V30 END BOND
M  V30 BEGIN COLLECTION
M  V30 MDLV30/STERAC1 ATOMS=(1 2)
M  V30 END COLLECTION
M  V30 END CTAB
M  END
>  <Molecule Name>
2-undecanol

>  <Molecule Name 2>
2-undecanol

>  <Database>
Essential Oil Database

>  <InChI>
InChI=1S/C11H24O/c1-3-4-5-6-7-8-9-10-11(2)12/h11-12H,3-10H2,1-2H3/t11-/m0/s1

>  <InChI-Key>
XMUJIPOFTAHSOK-NSHDSACASA-N

>  <Smiles>
CCCCCCCCCC(C)O

>  <Molecular Formula>
C11H24O

$$$$
6-methyl-3,5-heptadien-2-one
Actelion Java MolfileCreator 2.0

  0  0  0  0  0  0              0 V3000
M  V30 BEGIN CTAB
M  V30 COUNTS 9 8 0 0 0
M  V30 BEGIN ATOM
M  V30 1 O 0.0 0.0 0.0 0
M  V30 2 C 0.6808 -1.169 0.0 0
M  V30 3 C -0.1413 -2.338 0.0 0
M  V30 4 C 2.0683 -1.0405 0.0 0
M  V30 5 C -1.7856 -2.2096 0.0 0
M  V30 6 C -2.6207 -3.3786 0.0 0
M  V30 7 C -4.265 -3.2502 0.0 0
M  V30 8 C -5.1001 -4.4192 0.0 0
M  V30 9 C -5.1001 -1.8242 0.0 0
M  V30 END ATOM
M  V30 BEGIN BOND
M  V30 1 2 1 2
M  V30 2 1 2 3
M  V30 3 1 2 4
M  V30 4 2 3 5
M  V30 5 1 5 6
M  V30 6 2 6 7
M  V30 7 1 7 8
M  V30 8 1 7 9
M  V30 END BOND
M  V30 END CTAB
M  END
>  <Molecule Name>
6-methyl-3,5-heptadien-2-one

>  <Molecule Name 2>
6-methyl-3,5-heptadien-2-one

>  <Database>
Essential Oil Database

>  <InChI>
InChI=1S/C8H12O/c1-7(2)5-4-6-8(3)9/h4-6H,1-3H3/b6-4+

>  <InChI-Key>
KSKXSFZGARKWOW-GQCTYLIASA-N

>  <Smiles>
CC(C)=C/C=C/C(C)=O

>  <Molecular Formula>
C8H12O

$$$$
diphenylamine
Actelion Java MolfileCreator 2.0

  0  0  0  0  0  0              0 V3000
M  V30 BEGIN CTAB
M  V30 COUNTS 13 14 0 0 0
M  V30 BEGIN ATOM
M  V30 1 N 0.0 0.0 0.0 0
M  V30 2 C -0.1323 -1.4296 0.0 0
M  V30 3 C 1.2046 0.8604 0.0 0
M  V30 4 C 1.0722 -2.1445 0.0 0
M  V30 5 C -1.6017 -2.1445 0.0 0
M  V30 6 C 1.0722 2.5548 0.0 0
M  V30 7 C 2.4092 0.1588 0.0 0
M  V30 8 C 0.9398 -3.5741 0.0 0
M  V30 9 C -1.7341 -3.5741 0.0 0
M  V30 10 C 2.2768 3.4153 0.0 0
M  V30 11 C 3.6139 1.0325 0.0 0
M  V30 12 C -0.5295 -4.289 0.0 0
M  V30 13 C 3.4815 2.7137 0.0 0
M  V30 END ATOM
M  V30 BEGIN BOND
M  V30 1 1 1 2
M  V30 2 1 1 3
M  V30 3 2 2 4
M  V30 4 1 2 5
M  V30 5 2 3 6
M  V30 6 1 3 7
M  V30 7 1 4 8
M  V30 8 2 5 9
M  V30 9 1 6 10
M  V30 10 2 7 11
M  V30 11 2 8 12
M  V30 12 2 10 13
M  V30 13 1 9 12
M  V30 14 1 11 13
M  V30 END BOND
M  V30 END CTAB
M  END
>  <Molecule Name>
diphenylamine

>  <Molecule Name 2>
diphenylamine

>  <Database>
Essential Oil Database

>  <InChI>
InChI=1S/C12H11N/c1-3-7-11(8-4-1)13-12-9-5-2-6-10-12/h1-10,13H

>  <InChI-Key>
DMBHHRLKUKUOEG-UHFFFAOYSA-N

>  <Smiles>
c(cc1)ccc1Nc1ccccc1

>  <Molecular Formula>
C12H11N

$$$$
2,3,5-trimethyldecane
Actelion Java MolfileCreator 2.0

  0  0  0  0  0  0              0 V3000
M  V30 BEGIN CTAB
M  V30 COUNTS 13 12 0 0 0
M  V30 BEGIN ATOM
M  V30 1 C 0.0 0.0 0.0 0
M  V30 2 C -1.4667 0.8589 0.0 0
M  V30 3 C 1.2025 0.8589 0.0 0
M  V30 4 C -0.1321 -1.4271 0.0 0
M  V30 5 C -2.9335 0.1453 0.0 0
M  V30 6 C -1.5989 2.5503 0.0 0
M  V30 7 C 2.405 0.1453 0.0 0
M  V30 8 C 3.6075 1.0042 0.0 0
M  V30 9 C 2.2728 -1.2817 0.0 0
M  V30 10 C 4.81 0.2907 0.0 0
M  V30 11 C 6.0125 1.1496 0.0 0
M  V30 12 C 7.215 0.436 0.0 0
M  V30 13 C 8.4175 1.295 0.0 0
M  V30 END ATOM
M  V30 BEGIN BOND
M  V30 1 1 1 2
M  V30 2 1 1 3
M  V30 3 1 1 4
M  V30 4 1 2 5
M  V30 5 1 2 6
M  V30 6 1 3 7
M  V30 7 1 7 8
M  V30 8 1 7 9
M  V30 9 1 8 10
M  V30 10 1 10 11
M  V30 11 1 11 12
M  V30 12 1 12 13
M  V30 END BOND
M  V30 END CTAB
M  END
>  <Molecule Name>
2,3,5-trimethyldecane

>  <Molecule Name 2>
2,3,5-trimethyldecane

>  <Database>
Essential Oil Database

>  <InChI>
InChI=1S/C13H28/c1-6-7-8-9-12(4)10-13(5)11(2)3/h11-13H,6-10H2,1-5H3

>  <InChI-Key>
AQDNBRMRIRTYIA-UHFFFAOYSA-N

>  <Smiles>
CCCCCC(C)CC(C)C(C)C

>  <Molecular Formula>
C13H28

$$$$
2,6-dimethylheptane
Actelion Java MolfileCreator 2.0

  0  0  0  0  0  0              0 V3000
M  V30 BEGIN CTAB
M  V30 COUNTS 9 8 0 0 0
M  V30 BEGIN ATOM
M  V30 1 C 0.0 0.0 0.0 0
M  V30 2 C 1.2319 0.9353 0.0 0
M  V30 3 C -1.46 0.9353 0.0 0
M  V30 4 C -0.114 -1.4258 0.0 0
M  V30 5 C 2.4638 0.3079 0.0 0
M  V30 6 C 3.6957 1.2433 0.0 0
M  V30 7 C 4.9276 0.6159 0.0 0
M  V30 8 C 6.1596 1.5513 0.0 0
M  V30 9 C 4.8136 -0.8098 0.0 0
M  V30 END ATOM
M  V30 BEGIN BOND
M  V30 1 1 1 2
M  V30 2 1 1 3
M  V30 3 1 1 4
M  V30 4 1 2 5
M  V30 5 1 5 6
M  V30 6 1 6 7
M  V30 7 1 7 8
M  V30 8 1 7 9
M  V30 END BOND
M  V30 END CTAB
M  END
>  <Molecule Name>
2,6-dimethylheptane

>  <Molecule Name 2>
2,6-dimethylheptane

>  <Database>
Essential Oil Database

>  <InChI>
InChI=1S/C9H20/c1-8(2)6-5-7-9(3)4/h8-9H,5-7H2,1-4H3

>  <InChI-Key>
KBPCCVWUMVGXGF-UHFFFAOYSA-N

>  <Smiles>
CC(C)CCCC(C)C

>  <Molecular Formula>
C9H20

$$$$
2-methyl-4-heptanone
Actelion Java MolfileCreator 2.0

  0  0  0  0  0  0              0 V3000
M  V30 BEGIN CTAB
M  V30 COUNTS 9 8 0 0 0
M  V30 BEGIN ATOM
M  V30 1 O 0.0 0.0 0.0 0
M  V30 2 C -0.1267 1.6219 0.0 0
M  V30 3 C -1.5332 2.4455 0.0 0
M  V30 4 C 1.0263 2.4455 0.0 0
M  V30 5 C -2.9397 1.7612 0.0 0
M  V30 6 C 2.1794 1.7612 0.0 0
M  V30 7 C -4.3462 2.5849 0.0 0
M  V30 8 C -3.0664 0.3928 0.0 0
M  V30 9 C 3.3325 2.5849 0.0 0
M  V30 END ATOM
M  V30 BEGIN BOND
M  V30 1 2 1 2
M  V30 2 1 2 3
M  V30 3 1 2 4
M  V30 4 1 3 5
M  V30 5 1 4 6
M  V30 6 1 5 7
M  V30 7 1 5 8
M  V30 8 1 6 9
M  V30 END BOND
M  V30 END CTAB
M  END
>  <Molecule Name>
2-methyl-4-heptanone

>  <Molecule Name 2>
2-methyl-4-heptanone

>  <Database>
Essential Oil Database

>  <InChI>
InChI=1S/C8H16O/c1-4-5-8(9)6-7(2)3/h7H,4-6H2,1-3H3

>  <InChI-Key>
AKRJXOYALOGLHQ-UHFFFAOYSA-N

>  <Smiles>
CCCC(CC(C)C)=O

>  <Molecular Formula>
C8H16O

$$$$
2-methyldecane
Actelion Java MolfileCreator 2.0

  0  0  0  0  0  0              0 V3000
M  V30 BEGIN CTAB
M  V30 COUNTS 11 10 0 0 0
M  V30 BEGIN ATOM
M  V30 1 C 0.0 0.0 0.0 0
M  V30 2 C 1.2177 -0.7226 0.0 0
M  V30 3 C -1.4854 -0.7226 0.0 0
M  V30 4 C -0.1338 1.7129 0.0 0
M  V30 5 C 2.4355 0.1472 0.0 0
M  V30 6 C 3.6533 -0.562 0.0 0
M  V30 7 C 4.8711 0.3077 0.0 0
M  V30 8 C 6.0888 -0.4014 0.0 0
M  V30 9 C 7.3066 0.4683 0.0 0
M  V30 10 C 8.5244 -0.2408 0.0 0
M  V30 11 C 9.7422 0.6289 0.0 0
M  V30 END ATOM
M  V30 BEGIN BOND
M  V30 1 1 1 2
M  V30 2 1 1 3
M  V30 3 1 1 4
M  V30 4 1 2 5
M  V30 5 1 5 6
M  V30 6 1 6 7
M  V30 7 1 7 8
M  V30 8 1 8 9
M  V30 9 1 9 10
M  V30 10 1 10 11
M  V30 END BOND
M  V30 END CTAB
M  END
>  <Molecule Name>
2-methyldecane

>  <Molecule Name 2>
2-methyldecane

>  <Database>
Essential Oil Database

>  <InChI>
InChI=1S/C11H24/c1-4-5-6-7-8-9-10-11(2)3/h11H,4-10H2,1-3H3

>  <InChI-Key>
CNPVJWYWYZMPDS-UHFFFAOYSA-N

>  <Smiles>
CCCCCCCCC(C)C

>  <Molecular Formula>
C11H24

$$$$
2-methyloctane
Actelion Java MolfileCreator 2.0

  0  0  0  0  0  0              0 V3000
M  V30 BEGIN CTAB
M  V30 COUNTS 9 8 0 0 0
M  V30 BEGIN ATOM
M  V30 1 C 0.0 0.0 0.0 0
M  V30 2 C 1.2082 -0.717 0.0 0
M  V30 3 C -1.4738 -0.717 0.0 0
M  V30 4 C -0.1327 1.6995 0.0 0
M  V30 5 C 2.4165 0.146 0.0 0
M  V30 6 C 3.6248 -0.5576 0.0 0
M  V30 7 C 4.8331 0.3053 0.0 0
M  V30 8 C 6.0414 -0.3983 0.0 0
M  V30 9 C 7.2497 0.4647 0.0 0
M  V30 END ATOM
M  V30 BEGIN BOND
M  V30 1 1 1 2
M  V30 2 1 1 3
M  V30 3 1 1 4
M  V30 4 1 2 5
M  V30 5 1 5 6
M  V30 6 1 6 7
M  V30 7 1 7 8
M  V30 8 1 8 9
M  V30 END BOND
M  V30 END CTAB
M  END
>  <Molecule Name>
2-methyloctane

>  <Molecule Name 2>
2-methyloctane

>  <Database>
Essential Oil Database

>  <InChI>
InChI=1S/C9H20/c1-4-5-6-7-8-9(2)3/h9H,4-8H2,1-3H3

>  <InChI-Key>
ZUBZATZOEPUUQF-UHFFFAOYSA-N

>  <Smiles>
CCCCCCC(C)C

>  <Molecular Formula>
C9H20

$$$$
alpha-campholenal
Actelion Java MolfileCreator 2.0

  0  0  0  0  0  0              0 V3000
M  V30 BEGIN CTAB
M  V30 COUNTS 11 11 0 0 0
M  V30 BEGIN ATOM
M  V30 1 O 0.0 0.0 0.0 0
M  V30 2 C 1.3689 -0.3364 0.0 0
M  V30 3 C 1.5545 -1.7401 0.0 0
M  V30 4 C 2.9234 -2.0766 0.0 0 CFG=2
M  V30 5 C 4.0836 -1.0092 0.0 0
M  V30 6 C 3.2599 -3.4455 0.0 0
M  V30 7 C 5.2437 -1.8445 0.0 0
M  V30 8 C 3.1787 0.4756 0.0 0
M  V30 9 C 4.6868 0.4756 0.0 0
M  V30 10 C 4.6984 -3.3295 0.0 0
M  V30 11 C 6.6126 -1.2761 0.0 0
M  V30 END ATOM
M  V30 BEGIN BOND
M  V30 1 2 1 2
M  V30 2 1 2 3
M  V30 3 1 4 3 CFG=3
M  V30 4 1 4 5
M  V30 5 1 4 6
M  V30 6 1 5 7
M  V30 7 1 5 8
M  V30 8 1 5 9
M  V30 9 1 6 10
M  V30 10 1 7 11
M  V30 11 2 7 10
M  V30 END BOND
M  V30 BEGIN COLLECTION
M  V30 MDLV30/STERAC1 ATOMS=(1 4)
M  V30 END COLLECTION
M  V30 END CTAB
M  END
>  <Molecule Name>
alpha-campholenal

>  <Molecule Name 2>
alpha-campholenal

>  <Database>
Essential Oil Database

>  <InChI>
InChI=1S/C10H16O/c1-8-4-5-9(6-7-11)10(8,2)3/h4,7,9H,5-6H2,1-3H3/t9-/m1/s1

>  <InChI-Key>
OGCGGWYLHSJRFY-SECBINFHSA-N

>  <Smiles>
CC1(C)C(C)=CCC1CC=O

>  <Molecular Formula>
C10H16O

$$$$
10-epi-gamma-eudesmol
Actelion Java MolfileCreator 2.0

  0  0  0  0  0  0              0 V3000
M  V30 BEGIN CTAB
M  V30 COUNTS 16 17 0 0 0
M  V30 BEGIN ATOM
M  V30 1 O 0.0 0.0 0.0 0
M  V30 2 C 0.6694 -1.1494 0.0 0
M  V30 3 C -0.7326 -1.8189 0.0 0 CFG=1
M  V30 4 C 1.8189 -0.3157 0.0 0
M  V30 5 C 1.3389 -2.2989 0.0 0
M  V30 6 C -2.1347 -0.9852 0.0 0
M  V30 7 C -0.8589 -3.1831 0.0 0
M  V30 8 C -3.5368 -1.6547 0.0 0
M  V30 9 C -2.261 -3.8652 0.0 0
M  V30 10 C -4.9389 -0.821 0.0 0
M  V30 11 C -3.6631 -3.0189 0.0 0 CFG=2
M  V30 12 C -6.341 -1.4905 0.0 0
M  V30 13 C -5.0652 0.7957 0.0 0
M  V30 14 C -5.0652 -3.701 0.0 0
M  V30 15 C -3.7894 -4.3831 0.0 0
M  V30 16 C -6.4673 -2.8547 0.0 0
M  V30 END ATOM
M  V30 BEGIN BOND
M  V30 1 1 1 2
M  V30 2 1 3 2 CFG=3
M  V30 3 1 2 4
M  V30 4 1 2 5
M  V30 5 1 3 6
M  V30 6 1 3 7
M  V30 7 1 6 8
M  V30 8 1 7 9
M  V30 9 2 8 10
M  V30 10 1 8 11
M  V30 11 1 10 12
M  V30 12 1 10 13
M  V30 13 1 11 14
M  V30 14 1 11 15 CFG=1
M  V30 15 1 12 16
M  V30 16 1 9 11
M  V30 17 1 14 16
M  V30 END BOND
M  V30 BEGIN COLLECTION
M  V30 MDLV30/STERAC1 ATOMS=(2 3 11)
M  V30 END COLLECTION
M  V30 END CTAB
M  END
>  <Molecule Name>
10-epi-gamma-eudesmol

>  <Molecule Name 2>
10-epi-gamma-eudesmol

>  <Database>
Essential Oil Database

>  <InChI>
InChI=1S/C15H26O/c1-11-6-5-8-15(4)9-7-12(10-13(11)15)14(2,3)16/h12,16H,5-10H2,1-4H3/t12-,15+/m1/s1

>  <InChI-Key>
WMOPMQRJLLIEJV-DOMZBBRYSA-N

>  <Smiles>
CC(C)([C@H]1CC2=C(C)CCC[C@@]2(C)CC1)O

>  <Molecular Formula>
C15H26O

$$$$
2-ethylhexyl hydrogen phthalate
Actelion Java MolfileCreator 2.0

  0  0  0  0  0  0              0 V3000
M  V30 BEGIN CTAB
M  V30 COUNTS 20 20 0 0 0
M  V30 BEGIN ATOM
M  V30 1 O 0.0 0.0 0.0 0
M  V30 2 C -0.1267 1.6229 0.0 0
M  V30 3 O 1.027 2.447 0.0 0
M  V30 4 C -1.5341 2.447 0.0 0
M  V30 5 C 2.1808 1.775 0.0 0
M  V30 6 C -1.6609 4.07 0.0 0
M  V30 7 C -2.9415 1.775 0.0 0
M  V30 8 C 3.3346 2.5992 0.0 0 CFG=2
M  V30 9 C -0.5071 4.8941 0.0 0
M  V30 10 C -3.0683 4.8941 0.0 0
M  V30 11 C -4.3489 2.5992 0.0 0
M  V30 12 C 4.4884 1.9272 0.0 0
M  V30 13 C 3.2078 4.2221 0.0 0
M  V30 14 O -0.6339 6.5171 0.0 0
M  V30 15 O 0.6466 4.2221 0.0 0
M  V30 16 C -4.4757 4.2221 0.0 0
M  V30 17 C 5.6422 2.7513 0.0 0
M  V30 18 C 4.3616 5.0463 0.0 0
M  V30 19 C 6.796 2.0793 0.0 0
M  V30 20 C 7.9498 2.9035 0.0 0
M  V30 END ATOM
M  V30 BEGIN BOND
M  V30 1 2 1 2
M  V30 2 1 2 3
M  V30 3 1 2 4
M  V30 4 1 3 5
M  V30 5 2 4 6
M  V30 6 1 4 7
M  V30 7 1 8 5 CFG=1
M  V30 8 1 6 9
M  V30 9 1 6 10
M  V30 10 2 7 11
M  V30 11 1 8 12
M  V30 12 1 8 13
M  V30 13 2 9 14
M  V30 14 1 9 15
M  V30 15 2 10 16
M  V30 16 1 12 17
M  V30 17 1 13 18
M  V30 18 1 17 19
M  V30 19 1 19 20
M  V30 20 1 11 16
M  V30 END BOND
M  V30 BEGIN COLLECTION
M  V30 MDLV30/STERAC1 ATOMS=(1 8)
M  V30 END COLLECTION
M  V30 END CTAB
M  END
>  <Molecule Name>
2-ethylhexyl hydrogen phthalate

>  <Molecule Name 2>
2-ethylhexyl hydrogen phthalate

>  <Database>
Essential Oil Database

>  <InChI>
InChI=1S/C16H22O4/c1-3-5-8-12(4-2)11-20-16(19)14-10-7-6-9-13(14)15(17)18/h6-7,9-10,12H,3-5,8,11H2,1-2H3,(H,17,18)/t12-/m0/s1

>  <InChI-Key>
DJDSLBVSSOQSLW-LBPRGKRZSA-N

>  <Smiles>
CCCCC(CC)COC(c(cccc1)c1C(O)=O)=O

>  <Molecular Formula>
C16H22O4

$$$$
beta-cubebene
Actelion Java MolfileCreator 2.0

  0  0  0  0  0  0              0 V3000
M  V30 BEGIN CTAB
M  V30 COUNTS 15 17 0 0 0
M  V30 BEGIN ATOM
M  V30 1 C 0.0 0.0 0.0 0
M  V30 2 C -1.325 1.1139 0.0 0
M  V30 3 C 1.3836 0.4924 0.0 0 CFG=2
M  V30 4 C -0.1993 -1.4305 0.0 0
M  V30 5 C 2.134 -0.7035 0.0 0 CFG=1
M  V30 6 C 2.8141 0.68 0.0 0 CFG=1
M  V30 7 C 1.1373 -1.8526 0.0 0
M  V30 8 C 2.8845 -1.8995 0.0 0 CFG=2
M  V30 9 C 4.2446 0.8677 0.0 0 CFG=1
M  V30 10 C 4.315 -1.7119 0.0 0
M  V30 11 C 2.0754 -3.1659 0.0 0
M  V30 12 C 4.8075 2.3685 0.0 0
M  V30 13 C 4.9951 -0.3283 0.0 0
M  V30 14 C 3.8225 3.7991 0.0 0
M  V30 15 C 6.238 2.5561 0.0 0
M  V30 END ATOM
M  V30 BEGIN BOND
M  V30 1 2 1 2
M  V30 2 1 3 1 CFG=1
M  V30 3 1 1 4
M  V30 4 1 5 3 CFG=3
M  V30 5 1 6 3 CFG=3
M  V30 6 1 4 7
M  V30 7 1 5 8
M  V30 8 1 6 9
M  V30 9 1 8 10
M  V30 10 1 8 11 CFG=3
M  V30 11 1 9 12 CFG=1
M  V30 12 1 9 13
M  V30 13 1 12 14
M  V30 14 1 12 15
M  V30 15 1 5 6
M  V30 16 1 5 7
M  V30 17 1 10 13
M  V30 END BOND
M  V30 BEGIN COLLECTION
M  V30 MDLV30/STERAC1 ATOMS=(5 3 5 6 8 9)
M  V30 END COLLECTION
M  V30 END CTAB
M  END
>  <Molecule Name>
beta-cubebene

>  <Molecule Name 2>
beta-cubebene

>  <Database>
Essential Oil Database

>  <InChI>
InChI=1S/C15H24/c1-9(2)12-6-5-11(4)15-8-7-10(3)13(15)14(12)15/h9,11-14H,3,5-8H2,1-2,4H3/t11-,12+,13-,14-,15+/m0/s1

>  <InChI-Key>
FSRZGYRCMPZNJF-AIEDFZFUSA-N

>  <Smiles>
CC(C)[C@@H]1[C@@H]([C@@H]2C(CC3)=C)[C@]23[C@@H](C)CC1

>  <Molecular Formula>
C15H24

$$$$
curzerene
Actelion Java MolfileCreator 2.0

  0  0  0  0  0  0              0 V3000
M  V30 BEGIN CTAB
M  V30 COUNTS 16 17 0 0 0
M  V30 BEGIN ATOM
M  V30 1 O 0.0 0.0 0.0 0
M  V30 2 C 1.3803 -0.3421 0.0 0
M  V30 3 C -1.0736 -1.1679 0.0 0
M  V30 4 C 1.2623 -1.7932 0.0 0
M  V30 5 C 2.6309 0.5898 0.0 0
M  V30 6 C -0.2359 -2.3359 0.0 0
M  V30 7 C 2.5129 -2.4185 0.0 0
M  V30 8 C 3.8814 -0.0353 0.0 0 CFG=1
M  V30 9 C -0.814 -3.7163 0.0 0
M  V30 10 C 3.7635 -1.4865 0.0 0
M  V30 11 C 5.3326 0.1297 0.0 0
M  V30 12 C 4.6247 1.4275 0.0 0
M  V30 13 C 5.014 -2.1118 0.0 0
M  V30 14 C 5.9225 1.6399 0.0 0
M  V30 15 C 4.8961 -3.5629 0.0 0
M  V30 16 C 6.2646 -1.1797 0.0 0
M  V30 END ATOM
M  V30 BEGIN BOND
M  V30 1 1 1 2
M  V30 2 1 1 3
M  V30 3 2 2 4
M  V30 4 1 2 5
M  V30 5 2 3 6
M  V30 6 1 4 7
M  V30 7 1 5 8
M  V30 8 1 6 9
M  V30 9 1 7 10
M  V30 10 1 8 11
M  V30 11 1 8 12 CFG=1
M  V30 12 1 10 13
M  V30 13 2 11 14
M  V30 14 2 13 15
M  V30 15 1 13 16
M  V30 16 1 4 6
M  V30 17 1 8 10
M  V30 END BOND
M  V30 BEGIN COLLECTION
M  V30 MDLV30/STERAC1 ATOMS=(1 8)
M  V30 END COLLECTION
M  V30 END CTAB
M  END
>  <Molecule Name>
curzerene

>  <Molecule Name 2>
curzerene

>  <Database>
Essential Oil Database

>  <InChI>
InChI=1S/C15H20O/c1-6-15(5)8-14-12(11(4)9-16-14)7-13(15)10(2)3/h6,9,13H,1-2,7-8H2,3-5H3/t13?,15-/m0/s1

>  <InChI-Key>
HICAMHOOTMOHPA-WUJWULDRSA-N

>  <Smiles>
CC(Cc1c(C2)c(C)c[o]1)(C2C(C)=C)C=C

>  <Molecular Formula>
C15H20O

$$$$
squalene
Actelion Java MolfileCreator 2.0

  0  0  0  0  0  0              0 V3000
M  V30 BEGIN CTAB
M  V30 COUNTS 30 29 0 0 0
M  V30 BEGIN ATOM
M  V30 1 C 0.0 0.0 0.0 0
M  V30 2 C -1.6133 0.126 0.0 0
M  V30 3 C 0.668 1.3991 0.0 0
M  V30 4 C 0.668 -1.147 0.0 0
M  V30 5 C -2.4326 -1.0209 0.0 0
M  V30 6 C 2.0293 1.5251 0.0 0
M  V30 7 C -4.046 -0.8949 0.0 0
M  V30 8 C 2.7099 2.9242 0.0 0
M  V30 9 C -4.8653 -2.0419 0.0 0
M  V30 10 C 4.0712 3.0503 0.0 0
M  V30 11 C -6.4787 -1.9159 0.0 0
M  V30 12 C -4.1973 -3.1889 0.0 0
M  V30 13 C 4.7519 4.4494 0.0 0
M  V30 14 C 4.7519 1.9032 0.0 0
M  V30 15 C -7.298 -3.0629 0.0 0
M  V30 16 C -8.9114 -2.9368 0.0 0
M  V30 17 C -9.7307 -4.0838 0.0 0
M  V30 18 C -11.3441 -3.9578 0.0 0
M  V30 19 C -12.1634 -5.1048 0.0 0
M  V30 20 C -12.1634 -2.5587 0.0 0
M  V30 21 C -13.7768 -4.9788 0.0 0
M  V30 22 C -14.5961 -6.1258 0.0 0
M  V30 23 C -16.2095 -5.9998 0.0 0
M  V30 24 C -17.0288 -7.1468 0.0 0
M  V30 25 C -17.0288 -4.6006 0.0 0
M  V30 26 C -18.6422 -7.0207 0.0 0
M  V30 27 C -19.4615 -8.1677 0.0 0
M  V30 28 C -21.0749 -8.0417 0.0 0
M  V30 29 C -21.8942 -9.1887 0.0 0
M  V30 30 C -21.8942 -6.6426 0.0 0
M  V30 END ATOM
M  V30 BEGIN BOND
M  V30 1 2 1 2
M  V30 2 1 1 3
M  V30 3 1 1 4
M  V30 4 1 2 5
M  V30 5 1 3 6
M  V30 6 1 5 7
M  V30 7 1 6 8
M  V30 8 1 7 9
M  V30 9 2 8 10
M  V30 10 2 9 11
M  V30 11 1 9 12
M  V30 12 1 10 13
M  V30 13 1 10 14
M  V30 14 1 11 15
M  V30 15 1 15 16
M  V30 16 1 16 17
M  V30 17 2 17 18
M  V30 18 1 18 19
M  V30 19 1 18 20
M  V30 20 1 19 21
M  V30 21 1 21 22
M  V30 22 2 22 23
M  V30 23 1 23 24
M  V30 24 1 23 25
M  V30 25 1 24 26
M  V30 26 1 26 27
M  V30 27 2 27 28
M  V30 28 1 28 29
M  V30 29 1 28 30
M  V30 END BOND
M  V30 END CTAB
M  END
>  <Molecule Name>
squalene

>  <Molecule Name 2>
squalene

>  <Database>
Essential Oil Database

>  <InChI>
InChI=1S/C30H50/c1-25(2)15-11-19-29(7)23-13-21-27(5)17-9-10-18-28(6)22-14-24-30(8)20-12-16-26(3)4/h15-18,23-24H,9-14,19-22H2,1-8H3/b27-17+,28-18+,29-23+,30-24+

>  <InChI-Key>
YYGNTYWPHWGJRM-AAJYLUCBSA-N

>  <Smiles>
CC(C)=CCC/C(\C)=C/CC/C(\C)=C/CC/C=C(\C)/CC/C=C(\C)/CCC=C(C)C

>  <Molecular Formula>
C30H50

$$$$
ethyl acetate
Actelion Java MolfileCreator 2.0

  0  0  0  0  0  0              0 V3000
M  V30 BEGIN CTAB
M  V30 COUNTS 6 5 0 0 0
M  V30 BEGIN ATOM
M  V30 1 O 0.0 0.0 0.0 0
M  V30 2 C -0.7534 1.3067 0.0 0
M  V30 3 O -2.2604 1.4245 0.0 0
M  V30 4 C -0.1295 2.6135 0.0 0
M  V30 5 C -3.0374 2.7313 0.0 0
M  V30 6 C -4.5443 2.849 0.0 0
M  V30 END ATOM
M  V30 BEGIN BOND
M  V30 1 2 1 2
M  V30 2 1 2 3
M  V30 3 1 2 4
M  V30 4 1 3 5
M  V30 5 1 5 6
M  V30 END BOND
M  V30 END CTAB
M  END
>  <Molecule Name>
ethyl acetate

>  <Molecule Name 2>
ethyl acetate

>  <Database>
Essential Oil Database

>  <InChI>
InChI=1S/C4H8O2/c1-3-6-4(2)5/h3H2,1-2H3

>  <InChI-Key>
XEKOWRVHYACXOJ-UHFFFAOYSA-N

>  <Smiles>
CCOC(C)=O

>  <Molecular Formula>
C4H8O2

$$$$
cyperene
Actelion Java MolfileCreator 2.0

  0  0  0  0  0  0              0 V3000
M  V30 BEGIN CTAB
M  V30 COUNTS 15 17 0 0 0
M  V30 BEGIN ATOM
M  V30 1 C 0.0 0.0 0.0 0
M  V30 2 C -1.6057 0.2759 0.0 0
M  V30 3 C 0.6021 1.5681 0.0 0 CFG=2
M  V30 4 C 0.9408 -0.991 0.0 0
M  V30 5 C -2.0699 1.8566 0.0 0
M  V30 6 C -2.6846 -0.6899 0.0 0
M  V30 7 C 1.405 0.8405 0.0 0
M  V30 8 C 1.6935 2.7222 0.0 0 CFG=2
M  V30 9 C -0.7025 2.5968 0.0 0
M  V30 10 C 2.1953 -0.1756 0.0 0 CFG=1
M  V30 11 C 1.9194 2.3083 0.0 0
M  V30 12 C 2.6595 1.543 0.0 0
M  V30 13 C 3.0735 2.3835 0.0 0
M  V30 14 C 1.2419 4.3029 0.0 0
M  V30 15 C 3.2491 0.9032 0.0 0
M  V30 END ATOM
M  V30 BEGIN BOND
M  V30 1 2 1 2
M  V30 2 1 1 3
M  V30 3 1 1 4
M  V30 4 1 2 5
M  V30 5 1 2 6
M  V30 6 1 3 7 CFG=3
M  V30 7 1 3 8
M  V30 8 1 3 9
M  V30 9 1 4 10
M  V30 10 1 7 11
M  V30 11 1 7 12
M  V30 12 1 8 13
M  V30 13 1 8 14 CFG=1
M  V30 14 1 10 15 CFG=1
M  V30 15 1 5 9
M  V30 16 1 7 10
M  V30 17 1 13 15
M  V30 END BOND
M  V30 BEGIN COLLECTION
M  V30 MDLV30/STERAC1 ATOMS=(3 3 8 10)
M  V30 END COLLECTION
M  V30 END CTAB
M  END
>  <Molecule Name>
cyperene

>  <Molecule Name 2>
cyperene

>  <Database>
Essential Oil Database

>  <InChI>
InChI=1S/C15H24/c1-10-7-8-15-11(2)5-6-12(9-13(10)15)14(15,3)4/h11-12H,5-9H2,1-4H3/t11-,12-,15+/m0/s1

>  <InChI-Key>
RTBLDXVIGWSICW-SLEUVZQESA-N

>  <Smiles>
C[C@@H](CC[C@@H](C1)C2(C)C)[C@]22C1=C(C)CC2

>  <Molecular Formula>
C15H24

$$$$
maltol
Actelion Java MolfileCreator 2.0

  0  0  0  0  0  0              0 V3000
M  V30 BEGIN CTAB
M  V30 COUNTS 9 9 0 0 0
M  V30 BEGIN ATOM
M  V30 1 O 0.0 0.0 0.0 0
M  V30 2 C -1.3279 0.7656 0.0 0
M  V30 3 C -1.4476 2.297 0.0 0
M  V30 4 C -2.6559 0.1316 0.0 0
M  V30 5 O -0.3589 3.0747 0.0 0
M  V30 6 C -2.7756 3.0747 0.0 0
M  V30 7 C -3.9839 0.9092 0.0 0
M  V30 8 O -4.1035 2.4406 0.0 0
M  V30 9 C -2.8952 4.606 0.0 0
M  V30 END ATOM
M  V30 BEGIN BOND
M  V30 1 2 1 2
M  V30 2 1 2 3
M  V30 3 1 2 4
M  V30 4 1 3 5
M  V30 5 2 3 6
M  V30 6 2 4 7
M  V30 7 1 6 8
M  V30 8 1 6 9
M  V30 9 1 7 8
M  V30 END BOND
M  V30 END CTAB
M  END
>  <Molecule Name>
maltol

>  <Molecule Name 2>
maltol

>  <Database>
Essential Oil Database

>  <InChI>
InChI=1S/C6H6O3/c1-4-6(8)5(7)2-3-9-4/h2-3,8H,1H3

>  <InChI-Key>
XPCTZQVDEJYUGT-UHFFFAOYSA-N

>  <Smiles>
CC(OC=CC1=O)=C1O

>  <Molecular Formula>
C6H6O3

$$$$
(e)-p-menth-2-en-7-ol
Actelion Java MolfileCreator 2.0

  0  0  0  0  0  0              0 V3000
M  V30 BEGIN CTAB
M  V30 COUNTS 11 11 0 0 0
M  V30 BEGIN ATOM
M  V30 1 O 0.0 0.0 0.0 0
M  V30 2 C 1.2735 -0.6249 0.0 0
M  V30 3 C 1.1556 -2.0989 0.0 0
M  V30 4 C -0.3537 -2.7239 0.0 0
M  V30 5 C 2.4291 -2.7239 0.0 0
M  V30 6 C -0.4716 -4.1979 0.0 0
M  V30 7 C 2.3112 -4.1979 0.0 0
M  V30 8 C 0.8018 -4.8229 0.0 0
M  V30 9 C 0.6839 -6.2969 0.0 0
M  V30 10 C -0.8254 -6.9336 0.0 0
M  V30 11 C 1.9574 -6.9336 0.0 0
M  V30 END ATOM
M  V30 BEGIN BOND
M  V30 1 1 1 2
M  V30 2 1 2 3
M  V30 3 1 3 4
M  V30 4 1 3 5
M  V30 5 2 4 6
M  V30 6 1 5 7
M  V30 7 1 6 8
M  V30 8 1 8 9
M  V30 9 1 9 10
M  V30 10 1 9 11
M  V30 11 1 7 8
M  V30 END BOND
M  V30 END CTAB
M  END
>  <Molecule Name>
(e)-p-menth-2-en-7-ol

>  <Molecule Name 2>
(e)-p-menth-2-en-7-ol

>  <Database>
Essential Oil Database

>  <InChI>
InChI=1S/C10H18O/c1-8(2)10-5-3-9(7-11)4-6-10/h3,5,8-11H,4,6-7H2,1-2H3

>  <InChI-Key>
JWRJGMUBDGIGRT-UHFFFAOYSA-N

>  <Smiles>
CC(C)C1C=CC(CO)CC1

>  <Molecular Formula>
C10H18O

$$$$
2-furanmethanol
Actelion Java MolfileCreator 2.0

  0  0  0  0  0  0              0 V3000
M  V30 BEGIN CTAB
M  V30 COUNTS 7 7 0 0 0
M  V30 BEGIN ATOM
M  V30 1 O 0.0 0.0 0.0 0
M  V30 2 C 1.1019 0.997 0.0 0
M  V30 3 C 0.3804 -1.338 0.0 0
M  V30 4 C 2.2039 0.2098 0.0 0
M  V30 5 C 0.9707 2.6761 0.0 0
M  V30 6 C 1.7972 -1.2069 0.0 0
M  V30 7 O -0.4853 3.5288 0.0 0
M  V30 END ATOM
M  V30 BEGIN BOND
M  V30 1 1 1 2
M  V30 2 1 1 3
M  V30 3 2 2 4
M  V30 4 1 2 5
M  V30 5 2 3 6
M  V30 6 1 5 7
M  V30 7 1 4 6
M  V30 END BOND
M  V30 END CTAB
M  END
>  <Molecule Name>
2-furanmethanol

>  <Molecule Name 2>
2-furanmethanol

>  <Database>
Essential Oil Database

>  <InChI>
InChI=1S/C5H6O2/c6-4-5-2-1-3-7-5/h1-3,6H,4H2

>  <InChI-Key>
XPFVYQJUAUNWIW-UHFFFAOYSA-N

>  <Smiles>
OCc1ccc[o]1

>  <Molecular Formula>
C5H6O2

$$$$
2-ethyl-3-hydroxyhexyl-2-methylpropanoate
Actelion Java MolfileCreator 2.0

  0  0  0  0  0  0              0 V3000
M  V30 BEGIN CTAB
M  V30 COUNTS 15 14 0 0 0
M  V30 BEGIN ATOM
M  V30 1 O 0.0 0.0 0.0 0
M  V30 2 C -0.1294 1.6569 0.0 0
M  V30 3 O 1.0485 2.4983 0.0 0
M  V30 4 C -1.5662 2.4983 0.0 0
M  V30 5 C 2.2264 1.7992 0.0 0
M  V30 6 C -3.0031 1.7992 0.0 0
M  V30 7 C -1.6957 4.1552 0.0 0
M  V30 8 C 3.4044 2.6406 0.0 0
M  V30 9 C 4.5823 1.9416 0.0 0
M  V30 10 C 3.2749 4.2976 0.0 0
M  V30 11 O 4.4529 0.5436 0.0 0
M  V30 12 C 5.7603 2.783 0.0 0
M  V30 13 C 4.4529 5.1389 0.0 0
M  V30 14 C 6.9382 2.084 0.0 0
M  V30 15 C 8.1162 2.9254 0.0 0
M  V30 END ATOM
M  V30 BEGIN BOND
M  V30 1 2 1 2
M  V30 2 1 2 3
M  V30 3 1 2 4
M  V30 4 1 3 5
M  V30 5 1 4 6
M  V30 6 1 4 7
M  V30 7 1 5 8
M  V30 8 1 8 9
M  V30 9 1 8 10
M  V30 10 1 9 11
M  V30 11 1 9 12
M  V30 12 1 10 13
M  V30 13 1 12 14
M  V30 14 1 14 15
M  V30 END BOND
M  V30 END CTAB
M  END
>  <Molecule Name>
2-ethyl-3-hydroxyhexyl-2-methylpropanoate

>  <Molecule Name 2>
2-ethyl-3-hydroxyhexyl-2-methylpropanoate

>  <Database>
Essential Oil Database

>  <InChI>
InChI=1S/C12H24O3/c1-5-7-11(13)10(6-2)8-15-12(14)9(3)4/h9-11,13H,5-8H2,1-4H3

>  <InChI-Key>
QQRIGCXMIPFTKR-UHFFFAOYSA-N

>  <Smiles>
CCCC(C(CC)COC(C(C)C)=O)O

>  <Molecular Formula>
C12H24O3

$$$$
cyclohexadecane
Actelion Java MolfileCreator 2.0

  0  0  0  0  0  0              0 V3000
M  V30 BEGIN CTAB
M  V30 COUNTS 16 16 0 0 0
M  V30 BEGIN ATOM
M  V30 1 C 0.0 0.0 0.0 0
M  V30 2 C 0.9397 1.2399 0.0 0
M  V30 3 C -1.6707 0.5482 0.0 0
M  V30 4 C 2.3494 0.9528 0.0 0
M  V30 5 C -2.8715 -0.4307 0.0 0
M  V30 6 C 2.6888 -0.4437 0.0 0
M  V30 7 C -2.5321 -1.8273 0.0 0
M  V30 8 C 1.4879 -1.4227 0.0 0
M  V30 9 C -3.7329 -2.8062 0.0 0
M  V30 10 C 1.8273 -2.8193 0.0 0
M  V30 11 C -3.3936 -4.2028 0.0 0
M  V30 12 C 0.6265 -3.7982 0.0 0
M  V30 13 C -1.9839 -4.49 0.0 0
M  V30 14 C 0.9658 -5.1948 0.0 0
M  V30 15 C -1.6446 -5.8866 0.0 0
M  V30 16 C -0.2349 -6.1738 0.0 0
M  V30 END ATOM
M  V30 BEGIN BOND
M  V30 1 1 1 2
M  V30 2 1 1 3
M  V30 3 1 2 4
M  V30 4 1 3 5
M  V30 5 1 4 6
M  V30 6 1 5 7
M  V30 7 1 6 8
M  V30 8 1 7 9
M  V30 9 1 8 10
M  V30 10 1 9 11
M  V30 11 1 10 12
M  V30 12 1 11 13
M  V30 13 1 12 14
M  V30 14 1 13 15
M  V30 15 1 14 16
M  V30 16 1 15 16
M  V30 END BOND
M  V30 END CTAB
M  END
>  <Molecule Name>
cyclohexadecane

>  <Molecule Name 2>
cyclohexadecane

>  <Database>
Essential Oil Database

>  <InChI>
InChI=1S/C16H32/c1-2-4-6-8-10-12-14-16-15-13-11-9-7-5-3-1/h1-16H2

>  <InChI-Key>
JJWIOXUMXIOXQN-UHFFFAOYSA-N

>  <Smiles>
C1CCCCCCCCCCCCCCC1

>  <Molecular Formula>
C16H32

$$$$
heptadecanoic acid
Actelion Java MolfileCreator 2.0

  0  0  0  0  0  0              0 V3000
M  V30 BEGIN CTAB
M  V30 COUNTS 19 18 0 0 0
M  V30 BEGIN ATOM
M  V30 1 O 0.0 0.0 0.0 0
M  V30 2 C -0.117 -1.4633 0.0 0
M  V30 3 O -1.6155 -2.0837 0.0 0
M  V30 4 C 1.1472 -2.0837 0.0 0
M  V30 5 C 2.4115 -1.1355 0.0 0
M  V30 6 C 3.6759 -1.756 0.0 0
M  V30 7 C 4.9402 -0.8077 0.0 0
M  V30 8 C 6.2045 -1.4282 0.0 0
M  V30 9 C 7.4688 -0.4799 0.0 0
M  V30 10 C 8.7332 -1.1004 0.0 0
M  V30 11 C 9.9975 -0.1521 0.0 0
M  V30 12 C 11.2618 -0.7726 0.0 0
M  V30 13 C 12.5261 0.1756 0.0 0
M  V30 14 C 13.7905 -0.4448 0.0 0
M  V30 15 C 15.0548 0.5033 0.0 0
M  V30 16 C 16.3191 -0.117 0.0 0
M  V30 17 C 17.5834 0.8311 0.0 0
M  V30 18 C 18.8478 0.2107 0.0 0
M  V30 19 C 20.1121 1.1589 0.0 0
M  V30 END ATOM
M  V30 BEGIN BOND
M  V30 1 2 1 2
M  V30 2 1 2 3
M  V30 3 1 2 4
M  V30 4 1 4 5
M  V30 5 1 5 6
M  V30 6 1 6 7
M  V30 7 1 7 8
M  V30 8 1 8 9
M  V30 9 1 9 10
M  V30 10 1 10 11
M  V30 11 1 11 12
M  V30 12 1 12 13
M  V30 13 1 13 14
M  V30 14 1 14 15
M  V30 15 1 15 16
M  V30 16 1 16 17
M  V30 17 1 17 18
M  V30 18 1 18 19
M  V30 END BOND
M  V30 END CTAB
M  END
>  <Molecule Name>
heptadecanoic acid

>  <Molecule Name 2>
heptadecanoic acid

>  <Database>
Essential Oil Database

>  <InChI>
InChI=1S/C17H34O2/c1-2-3-4-5-6-7-8-9-10-11-12-13-14-15-16-17(18)19/h2-16H2,1H3,(H,18,19)

>  <InChI-Key>
KEMQGTRYUADPNZ-UHFFFAOYSA-N

>  <Smiles>
CCCCCCCCCCCCCCCCC(O)=O

>  <Molecular Formula>
C17H34O2

$$$$
alpha-guaiene
Actelion Java MolfileCreator 2.0

  0  0  0  0  0  0              0 V3000
M  V30 BEGIN CTAB
M  V30 COUNTS 15 16 0 0 0
M  V30 BEGIN ATOM
M  V30 1 C 0.0 0.0 0.0 0
M  V30 2 C -0.1229 -1.402 0.0 0
M  V30 3 C -1.5742 0.6026 0.0 0 CFG=1
M  V30 4 C 1.0577 1.0577 0.0 0
M  V30 5 C 0.9347 -2.2138 0.0 0 CFG=1
M  V30 6 C -1.6972 -1.7587 0.0 0
M  V30 7 C -2.5827 -0.5042 0.0 0
M  V30 8 C -2.1769 2.1769 0.0 0
M  V30 9 C 2.4228 0.8363 0.0 0 CFG=1
M  V30 10 C 2.2998 -1.7464 0.0 0
M  V30 11 C 0.4673 -3.5789 0.0 0
M  V30 12 C 3.2346 2.14 0.0 0
M  V30 13 C 2.9763 -0.4058 0.0 0
M  V30 14 C 4.6243 2.0293 0.0 0
M  V30 15 C 2.5458 3.6773 0.0 0
M  V30 END ATOM
M  V30 BEGIN BOND
M  V30 1 2 1 2
M  V30 2 1 1 3
M  V30 3 1 1 4
M  V30 4 1 2 5
M  V30 5 1 2 6
M  V30 6 1 3 7
M  V30 7 1 3 8 CFG=1
M  V30 8 1 4 9
M  V30 9 1 5 10
M  V30 10 1 5 11 CFG=1
M  V30 11 1 9 12 CFG=1
M  V30 12 1 9 13
M  V30 13 2 12 14
M  V30 14 1 12 15
M  V30 15 1 6 7
M  V30 16 1 10 13
M  V30 END BOND
M  V30 BEGIN COLLECTION
M  V30 MDLV30/STERAC1 ATOMS=(3 3 5 9)
M  V30 END COLLECTION
M  V30 END CTAB
M  END
>  <Molecule Name>
alpha-guaiene

>  <Molecule Name 2>
alpha-guaiene

>  <Database>
Essential Oil Database

>  <InChI>
InChI=1S/C15H24/c1-10(2)13-7-5-11(3)14-8-6-12(4)15(14)9-13/h11-13H,1,5-9H2,2-4H3/t11-,12-,13+/m1/s1

>  <InChI-Key>
ADIDQIZBYUABQK-UPJWGTAASA-N

>  <Smiles>
C[C@H](CC1)C(C2)=C1[C@H](C)CC[C@@H]2C(C)=C

>  <Molecular Formula>
C15H24

$$$$
cyclododecane
Actelion Java MolfileCreator 2.0

  0  0  0  0  0  0              0 V3000
M  V30 BEGIN CTAB
M  V30 COUNTS 12 12 0 0 0
M  V30 BEGIN ATOM
M  V30 1 C 0.0 0.0 0.0 0
M  V30 2 C 1.2376 0.9282 0.0 0
M  V30 3 C -1.4668 0.9282 0.0 0
M  V30 4 C 2.4753 0.3208 0.0 0
M  V30 5 C -2.9337 0.3208 0.0 0
M  V30 6 C 2.3607 -1.1116 0.0 0
M  V30 7 C -3.0483 -1.1116 0.0 0
M  V30 8 C 0.8938 -1.719 0.0 0
M  V30 9 C -1.8106 -1.719 0.0 0
M  V30 10 C 0.7792 -3.1515 0.0 0
M  V30 11 C -1.9252 -3.1515 0.0 0
M  V30 12 C -0.6876 -3.8391 0.0 0
M  V30 END ATOM
M  V30 BEGIN BOND
M  V30 1 1 1 2
M  V30 2 1 1 3
M  V30 3 1 2 4
M  V30 4 1 3 5
M  V30 5 1 4 6
M  V30 6 1 5 7
M  V30 7 1 6 8
M  V30 8 1 7 9
M  V30 9 1 8 10
M  V30 10 1 9 11
M  V30 11 1 10 12
M  V30 12 1 11 12
M  V30 END BOND
M  V30 END CTAB
M  END
>  <Molecule Name>
cyclododecane

>  <Molecule Name 2>
cyclododecane

>  <Database>
Essential Oil Database

>  <InChI>
InChI=1S/C12H24/c1-2-4-6-8-10-12-11-9-7-5-3-1/h1-12H2

>  <InChI-Key>
DDTBPAQBQHZRDW-UHFFFAOYSA-N

>  <Smiles>
C1CCCCCCCCCCC1

>  <Molecular Formula>
C12H24

$$$$
veratrole
Actelion Java MolfileCreator 2.0

  0  0  0  0  0  0              0 V3000
M  V30 BEGIN CTAB
M  V30 COUNTS 10 10 0 0 0
M  V30 BEGIN ATOM
M  V30 1 O 0.0 0.0 0.0 0
M  V30 2 C -0.1153 -1.4415 0.0 0
M  V30 3 C -1.4761 0.9341 0.0 0
M  V30 4 C 1.1301 -2.0527 0.0 0
M  V30 5 C -1.5914 -2.0527 0.0 0
M  V30 6 O 2.3757 -1.1186 0.0 0
M  V30 7 C 1.0148 -3.4943 0.0 0
M  V30 8 C -1.7068 -3.4943 0.0 0
M  V30 9 C 3.6212 -1.7298 0.0 0
M  V30 10 C -0.4613 -4.1055 0.0 0
M  V30 END ATOM
M  V30 BEGIN BOND
M  V30 1 1 1 2
M  V30 2 1 1 3
M  V30 3 2 2 4
M  V30 4 1 2 5
M  V30 5 1 4 6
M  V30 6 1 4 7
M  V30 7 2 5 8
M  V30 8 1 6 9
M  V30 9 2 7 10
M  V30 10 1 8 10
M  V30 END BOND
M  V30 END CTAB
M  END
>  <Molecule Name>
veratrole

>  <Molecule Name 2>
veratrole

>  <Database>
Essential Oil Database

>  <InChI>
InChI=1S/C8H10O2/c1-9-7-5-3-4-6-8(7)10-2/h3-6H,1-2H3

>  <InChI-Key>
ABDKAPXRBAPSQN-UHFFFAOYSA-N

>  <Smiles>
COc(cccc1)c1OC

>  <Molecular Formula>
C8H10O2

$$$$
2-methyl-2-butanol
Actelion Java MolfileCreator 2.0

  0  0  0  0  0  0              0 V3000
M  V30 BEGIN CTAB
M  V30 COUNTS 6 5 0 0 0
M  V30 BEGIN ATOM
M  V30 1 O 0.0 0.0 0.0 0
M  V30 2 C -1.5427 0.1205 0.0 0
M  V30 3 C -1.6632 1.6632 0.0 0
M  V30 4 C -1.6632 -1.1811 0.0 0
M  V30 5 C -3.0855 0.241 0.0 0
M  V30 6 C -3.0011 2.4467 0.0 0
M  V30 END ATOM
M  V30 BEGIN BOND
M  V30 1 1 1 2
M  V30 2 1 2 3
M  V30 3 1 2 4
M  V30 4 1 2 5
M  V30 5 1 3 6
M  V30 END BOND
M  V30 END CTAB
M  END
>  <Molecule Name>
2-methyl-2-butanol

>  <Molecule Name 2>
2-methyl-2-butanol

>  <Database>
Essential Oil Database

>  <InChI>
InChI=1S/C5H12O/c1-4-5(2,3)6/h6H,4H2,1-3H3

>  <InChI-Key>
MSXVEPNJUHWQHW-UHFFFAOYSA-N

>  <Smiles>
CCC(C)(C)O

>  <Molecular Formula>
C5H12O

$$$$
benzothiazole
Actelion Java MolfileCreator 2.0

  0  0  0  0  0  0              0 V3000
M  V30 BEGIN CTAB
M  V30 COUNTS 9 10 0 0 0
M  V30 BEGIN ATOM
M  V30 1 S 0.0 0.0 0.0 0
M  V30 2 C 1.3115 0.63 0.0 0
M  V30 3 C -0.9772 1.3372 0.0 0
M  V30 4 C 1.1829 2.2759 0.0 0
M  V30 5 C 2.4816 -0.0514 0.0 0
M  V30 6 N -0.2057 2.6745 0.0 0
M  V30 7 C 2.353 3.1246 0.0 0
M  V30 8 C 3.6518 0.7843 0.0 0
M  V30 9 C 3.5232 2.4302 0.0 0
M  V30 END ATOM
M  V30 BEGIN BOND
M  V30 1 1 1 2
M  V30 2 1 1 3
M  V30 3 2 2 4
M  V30 4 1 2 5
M  V30 5 2 3 6
M  V30 6 1 4 7
M  V30 7 2 5 8
M  V30 8 2 7 9
M  V30 9 1 4 6
M  V30 10 1 8 9
M  V30 END BOND
M  V30 END CTAB
M  END
>  <Molecule Name>
benzothiazole

>  <Molecule Name 2>
benzothiazole

>  <Database>
Essential Oil Database

>  <InChI>
InChI=1S/C7H5NS/c1-2-4-7-6(3-1)8-5-9-7/h1-5H

>  <InChI-Key>
IOJUPLGTWVMSFF-UHFFFAOYSA-N

>  <Smiles>
c1nc(cccc2)c2[s]1

>  <Molecular Formula>
C7H5NS

$$$$
dimethyl sulfoxide
Actelion Java MolfileCreator 2.0

  0  0  0  0  0  0              0 V3000
M  V30 BEGIN CTAB
M  V30 COUNTS 4 3 0 0 0
M  V30 BEGIN ATOM
M  V30 1 S 0.0 0.0 0.0 0
M  V30 2 O 0.6686 1.4003 0.0 0
M  V30 3 C 0.6686 -1.148 0.0 0
M  V30 4 C -1.6147 0.1261 0.0 0
M  V30 END ATOM
M  V30 BEGIN BOND
M  V30 1 2 1 2
M  V30 2 1 1 3
M  V30 3 1 1 4
M  V30 END BOND
M  V30 END CTAB
M  END
>  <Molecule Name>
dimethyl sulfoxide

>  <Molecule Name 2>
dimethyl sulfoxide

>  <Database>
Essential Oil Database

>  <InChI>
InChI=1S/C2H6OS/c1-4(2)3/h1-2H3

>  <InChI-Key>
IAZDPXIOMUYVGZ-UHFFFAOYSA-N

>  <Smiles>
CS(C)=O

>  <Molecular Formula>
C2H6OS

$$$$
(e)-6-nonenol
Actelion Java MolfileCreator 2.0

  0  0  0  0  0  0              0 V3000
M  V30 BEGIN CTAB
M  V30 COUNTS 10 9 0 0 0
M  V30 BEGIN ATOM
M  V30 1 O 0.0 0.0 0.0 0
M  V30 2 C 1.2751 0.9709 0.0 0
M  V30 3 C 2.5502 0.3041 0.0 0
M  V30 4 C 3.8253 1.2751 0.0 0
M  V30 5 C 5.1005 0.6434 0.0 0
M  V30 6 C 6.3756 1.6143 0.0 0
M  V30 7 C 7.6507 0.9475 0.0 0
M  V30 8 C 7.5338 -0.5264 0.0 0
M  V30 9 C 8.8089 -1.1815 0.0 0
M  V30 10 C 8.6919 -2.6555 0.0 0
M  V30 END ATOM
M  V30 BEGIN BOND
M  V30 1 1 1 2
M  V30 2 1 2 3
M  V30 3 1 3 4
M  V30 4 1 4 5
M  V30 5 1 5 6
M  V30 6 1 6 7
M  V30 7 2 7 8
M  V30 8 1 8 9
M  V30 9 1 9 10
M  V30 END BOND
M  V30 END CTAB
M  END
>  <Molecule Name>
(e)-6-nonenol

>  <Molecule Name 2>
(e)-6-nonenol

>  <Database>
Essential Oil Database

>  <InChI>
InChI=1S/C9H18O/c1-2-3-4-5-6-7-8-9-10/h3-4,10H,2,5-9H2,1H3/b4-3+

>  <InChI-Key>
XJHRZBIBSSVCEL-ONEGZZNKSA-N

>  <Smiles>
CC/C=C/CCCCCO

>  <Molecular Formula>
C9H18O

$$$$
(e,e)-3,6-nonadienol
Actelion Java MolfileCreator 2.0

  0  0  0  0  0  0              0 V3000
M  V30 BEGIN CTAB
M  V30 COUNTS 10 9 0 0 0
M  V30 BEGIN ATOM
M  V30 1 O 0.0 0.0 0.0 0
M  V30 2 C 0.7022 -1.2057 0.0 0
M  V30 3 C -0.1457 -2.4114 0.0 0
M  V30 4 C 0.5564 -3.6172 0.0 0
M  V30 5 C -0.2914 -4.8229 0.0 0
M  V30 6 C 0.4107 -6.0286 0.0 0
M  V30 7 C -0.4372 -7.2344 0.0 0
M  V30 8 C -2.1332 -7.1019 0.0 0
M  V30 9 C -3.0077 -8.3076 0.0 0
M  V30 10 C -4.7037 -8.1751 0.0 0
M  V30 END ATOM
M  V30 BEGIN BOND
M  V30 1 1 1 2
M  V30 2 1 2 3
M  V30 3 1 3 4
M  V30 4 2 4 5
M  V30 5 1 5 6
M  V30 6 1 6 7
M  V30 7 2 7 8
M  V30 8 1 8 9
M  V30 9 1 9 10
M  V30 END BOND
M  V30 END CTAB
M  END
>  <Molecule Name>
(e,e)-3,6-nonadienol

>  <Molecule Name 2>
(e,e)-3,6-nonadienol

>  <Database>
Essential Oil Database

>  <InChI>
InChI=1S/C9H16O/c1-2-3-4-5-6-7-8-9-10/h3-4,6-7,10H,2,5,8-9H2,1H3/b4-3+,7-6+

>  <InChI-Key>
PICGPEBVZGCYBV-FZWLCVONSA-N

>  <Smiles>
CC/C=C/C/C=C/CCO

>  <Molecular Formula>
C9H16O

$$$$
(e,z)-2,3-nonadienal
Actelion Java MolfileCreator 2.0

  0  0  0  0  0  0              0 V3000
M  V30 BEGIN CTAB
M  V30 COUNTS 10 9 0 0 0
M  V30 BEGIN ATOM
M  V30 1 O 0.0 0.0 0.0 0
M  V30 2 C -0.1352 1.7313 0.0 0
M  V30 3 C 1.0956 2.6241 0.0 0
M  V30 4 C 2.3265 1.8937 0.0 0 CFG=2
M  V30 5 C 3.5574 1.1768 0.0 0
M  V30 6 C 4.7883 2.056 0.0 0
M  V30 7 C 6.0193 1.3391 0.0 0
M  V30 8 C 7.2502 2.2183 0.0 0
M  V30 9 C 8.4811 1.5014 0.0 0
M  V30 10 C 9.712 2.3806 0.0 0
M  V30 END ATOM
M  V30 BEGIN BOND
M  V30 1 2 1 2
M  V30 2 1 3 2 CFG=3
M  V30 3 2 3 4
M  V30 4 2 4 5
M  V30 5 1 5 6
M  V30 6 1 6 7
M  V30 7 1 7 8
M  V30 8 1 8 9
M  V30 9 1 9 10
M  V30 END BOND
M  V30 BEGIN COLLECTION
M  V30 MDLV30/STERAC1 ATOMS=(1 4)
M  V30 END COLLECTION
M  V30 END CTAB
M  END
>  <Molecule Name>
(e,z)-2,3-nonadienal

>  <Molecule Name 2>
(e,z)-2,3-nonadienal

>  <Database>
Essential Oil Database

>  <InChI>
InChI=1S/C9H14O/c1-2-3-4-5-6-7-8-9-10/h6,8-9H,2-5H2,1H3

>  <InChI-Key>
DMKXNHLGBGDQTF-UHFFFAOYSA-N

>  <Smiles>
CCCCCC=C=CC=O

>  <Molecular Formula>
C9H14O

$$$$
(e,z)-3,6-nonadienol
Actelion Java MolfileCreator 2.0

  0  0  0  0  0  0              0 V3000
M  V30 BEGIN CTAB
M  V30 COUNTS 10 9 0 0 0
M  V30 BEGIN ATOM
M  V30 1 O 0.0 0.0 0.0 0
M  V30 2 C 0.6449 1.3508 0.0 0
M  V30 3 C 1.9593 1.4725 0.0 0
M  V30 4 C 2.6042 2.8233 0.0 0
M  V30 5 C 1.801 4.1741 0.0 0
M  V30 6 C 0.2433 4.2958 0.0 0
M  V30 7 C -0.5354 5.6466 0.0 0
M  V30 8 C -2.0931 5.7683 0.0 0
M  V30 9 C -2.8963 4.6609 0.0 0
M  V30 10 C -4.454 4.7826 0.0 0
M  V30 END ATOM
M  V30 BEGIN BOND
M  V30 1 1 1 2
M  V30 2 1 2 3
M  V30 3 1 3 4
M  V30 4 2 4 5
M  V30 5 1 5 6
M  V30 6 1 6 7
M  V30 7 2 7 8
M  V30 8 1 8 9
M  V30 9 1 9 10
M  V30 END BOND
M  V30 END CTAB
M  END
>  <Molecule Name>
(e,z)-3,6-nonadienol

>  <Molecule Name 2>
(e,z)-3,6-nonadienol

>  <Database>
Essential Oil Database

>  <InChI>
InChI=1S/C9H16O/c1-2-3-4-5-6-7-8-9-10/h3-4,6-7,10H,2,5,8-9H2,1H3/b4-3-,7-6-

>  <InChI-Key>
PICGPEBVZGCYBV-CWWKMNTPSA-N

>  <Smiles>
CC/C=C\C/C=C\CCO

>  <Molecular Formula>
C9H16O

$$$$
methyl nonanoate
Actelion Java MolfileCreator 2.0

  0  0  0  0  0  0              0 V3000
M  V30 BEGIN CTAB
M  V30 COUNTS 12 11 0 0 0
M  V30 BEGIN ATOM
M  V30 1 O 0.0 0.0 0.0 0
M  V30 2 C -0.1064 -1.3303 0.0 0
M  V30 3 O 1.0429 -1.905 0.0 0
M  V30 4 C -1.4686 -1.905 0.0 0
M  V30 5 C 2.1923 -1.0323 0.0 0
M  V30 6 C -2.8309 -1.0323 0.0 0
M  V30 7 C -4.1931 -1.607 0.0 0
M  V30 8 C -5.5553 -0.7343 0.0 0
M  V30 9 C -6.9176 -1.3622 0.0 0
M  V30 10 C -8.2798 -0.4895 0.0 0
M  V30 11 C -9.6421 -1.1387 0.0 0
M  V30 12 C -11.0043 -0.266 0.0 0
M  V30 END ATOM
M  V30 BEGIN BOND
M  V30 1 2 1 2
M  V30 2 1 2 3
M  V30 3 1 2 4
M  V30 4 1 3 5
M  V30 5 1 4 6
M  V30 6 1 6 7
M  V30 7 1 7 8
M  V30 8 1 8 9
M  V30 9 1 9 10
M  V30 10 1 10 11
M  V30 11 1 11 12
M  V30 END BOND
M  V30 END CTAB
M  END
>  <Molecule Name>
methyl nonanoate

>  <Molecule Name 2>
methyl nonanoate

>  <Database>
Essential Oil Database

>  <InChI>
InChI=1S/C10H20O2/c1-3-4-5-6-7-8-9-10(11)12-2/h3-9H2,1-2H3

>  <InChI-Key>
IJXHLVMUNBOGRR-UHFFFAOYSA-N

>  <Smiles>
CCCCCCCCC(OC)=O

>  <Molecular Formula>
C10H20O2

$$$$
(z)-2-decenol
Actelion Java MolfileCreator 2.0

  0  0  0  0  0  0              0 V3000
M  V30 BEGIN CTAB
M  V30 COUNTS 11 10 0 0 0
M  V30 BEGIN ATOM
M  V30 1 O 0.0 0.0 0.0 0
M  V30 2 C 1.2733 -0.6308 0.0 0
M  V30 3 C 1.1565 -2.1028 0.0 0
M  V30 4 C 2.4299 -2.7337 0.0 0
M  V30 5 C 3.7033 -1.764 0.0 0
M  V30 6 C 4.9767 -2.4065 0.0 0
M  V30 7 C 6.2501 -1.4369 0.0 0
M  V30 8 C 7.5235 -2.0677 0.0 0
M  V30 9 C 8.7969 -1.0981 0.0 0
M  V30 10 C 10.0703 -1.7523 0.0 0
M  V30 11 C 11.3436 -0.7827 0.0 0
M  V30 END ATOM
M  V30 BEGIN BOND
M  V30 1 1 1 2
M  V30 2 1 2 3
M  V30 3 2 3 4
M  V30 4 1 4 5
M  V30 5 1 5 6
M  V30 6 1 6 7
M  V30 7 1 7 8
M  V30 8 1 8 9
M  V30 9 1 9 10
M  V30 10 1 10 11
M  V30 END BOND
M  V30 END CTAB
M  END
>  <Molecule Name>
(z)-2-decenol

>  <Molecule Name 2>
(z)-2-decenol

>  <Database>
Essential Oil Database

>  <InChI>
InChI=1S/C10H20O/c1-2-3-4-5-6-7-8-9-10-11/h8-9,11H,2-7,10H2,1H3/b9-8-

>  <InChI-Key>
QOPYYRPCXHTOQZ-HJWRWDBZSA-N

>  <Smiles>
CCCCCCC/C=C\CO

>  <Molecular Formula>
C10H20O

$$$$
(z)-3-nonenol
Actelion Java MolfileCreator 2.0

  0  0  0  0  0  0              0 V3000
M  V30 BEGIN CTAB
M  V30 COUNTS 10 9 0 0 0
M  V30 BEGIN ATOM
M  V30 1 O 0.0 0.0 0.0 0
M  V30 2 C 1.2668 0.953 0.0 0
M  V30 3 C 2.5337 0.2208 0.0 0
M  V30 4 C 2.4175 -1.2436 0.0 0
M  V30 5 C 3.6844 -1.8596 0.0 0
M  V30 6 C 4.9513 -0.9065 0.0 0
M  V30 7 C 6.2182 -1.5225 0.0 0
M  V30 8 C 7.4851 -0.5695 0.0 0
M  V30 9 C 8.752 -1.1855 0.0 0
M  V30 10 C 10.0189 -0.2324 0.0 0
M  V30 END ATOM
M  V30 BEGIN BOND
M  V30 1 1 1 2
M  V30 2 1 2 3
M  V30 3 1 3 4
M  V30 4 2 4 5
M  V30 5 1 5 6
M  V30 6 1 6 7
M  V30 7 1 7 8
M  V30 8 1 8 9
M  V30 9 1 9 10
M  V30 END BOND
M  V30 END CTAB
M  END
>  <Molecule Name>
(z)-3-nonenol

>  <Molecule Name 2>
(z)-3-nonenol

>  <Database>
Essential Oil Database

>  <InChI>
InChI=1S/C9H18O/c1-2-3-4-5-6-7-8-9-10/h6-7,10H,2-5,8-9H2,1H3/b7-6-

>  <InChI-Key>
IFTBJDZSLBRRMC-SREVYHEPSA-N

>  <Smiles>
CCCCC/C=C\CCO

>  <Molecular Formula>
C9H18O

$$$$
aristolone
Actelion Java MolfileCreator 2.0

  0  0  0  0  0  0              0 V3000
M  V30 BEGIN CTAB
M  V30 COUNTS 16 18 0 0 0
M  V30 BEGIN ATOM
M  V30 1 O 0.0 0.0 0.0 0
M  V30 2 C -1.0169 -1.0951 0.0 0
M  V30 3 C -2.6858 -0.7692 0.0 0
M  V30 4 C -0.4954 -2.3859 0.0 0 CFG=1
M  V30 5 C -3.7027 -1.8644 0.0 0
M  V30 6 C 0.026 -3.6767 0.0 0
M  V30 7 C -1.5124 -3.4811 0.0 0 CFG=1
M  V30 8 C -3.1812 -3.1551 0.0 0 CFG=1
M  V30 9 C -5.3716 -1.5384 0.0 0
M  V30 10 C 0.4172 -5.0196 0.0 0
M  V30 11 C 1.4472 -3.5984 0.0 0
M  V30 12 C -4.1982 -4.2503 0.0 0 CFG=1
M  V30 13 C -2.6597 -4.4459 0.0 0
M  V30 14 C -6.3886 -2.6336 0.0 0
M  V30 15 C -5.867 -3.9244 0.0 0
M  V30 16 C -3.6767 -5.5411 0.0 0
M  V30 END ATOM
M  V30 BEGIN BOND
M  V30 1 2 1 2
M  V30 2 1 2 3
M  V30 3 1 2 4
M  V30 4 2 3 5
M  V30 5 1 4 6 CFG=1
M  V30 6 1 4 7
M  V30 7 1 5 8
M  V30 8 1 5 9
M  V30 9 1 6 10
M  V30 10 1 6 11
M  V30 11 1 8 12
M  V30 12 1 8 13 CFG=3
M  V30 13 1 9 14
M  V30 14 1 12 15
M  V30 15 1 12 16 CFG=3
M  V30 16 1 7 6 CFG=1
M  V30 17 1 7 8
M  V30 18 1 14 15
M  V30 END BOND
M  V30 BEGIN COLLECTION
M  V30 MDLV30/STERAC1 ATOMS=(4 4 7 8 12)
M  V30 END COLLECTION
M  V30 END CTAB
M  END
>  <Molecule Name>
aristolone

>  <Molecule Name 2>
aristolone

>  <Database>
Essential Oil Database

>  <InChI>
InChI=1S/C15H22O/c1-9-6-5-7-10-8-11(16)12-13(14(12,2)3)15(9,10)4/h8-9,12-13H,5-7H2,1-4H3/t9-,12-,13+,15+/m1/s1

>  <InChI-Key>
UGVIZCBJCSXBCJ-JWFUOXDNSA-N

>  <Smiles>
C[C@H](CCC1)[C@](C)([C@@H]2C(C)(C)[C@@H]22)C1=CC2=O

>  <Molecular Formula>
C15H22O

$$$$
cyperotundone
Actelion Java MolfileCreator 2.0

  0  0  0  0  0  0              0 V3000
M  V30 BEGIN CTAB
M  V30 COUNTS 16 18 0 0 0
M  V30 BEGIN ATOM
M  V30 1 O 0.0 0.0 0.0 0
M  V30 2 C 1.3059 -0.5223 0.0 0
M  V30 3 C 1.5279 -1.9328 0.0 0
M  V30 4 C 2.5336 0.3917 0.0 0
M  V30 5 C 2.9645 -1.9589 0.0 0
M  V30 6 C 0.3787 -2.9645 0.0 0
M  V30 7 C 3.6567 -0.444 0.0 0
M  V30 8 C 3.9701 -3.0168 0.0 0
M  V30 9 C 4.5186 -1.2145 0.0 0
M  V30 10 C 4.819 0.7835 0.0 0
M  V30 11 C 5.3022 -2.1679 0.0 0
M  V30 12 C 5.0541 0.3395 0.0 0
M  V30 13 C 5.8507 -0.4832 0.0 0
M  V30 14 C 6.2817 0.4309 0.0 0
M  V30 15 C 4.3489 2.4552 0.0 0
M  V30 16 C 6.4254 -1.0186 0.0 0
M  V30 END ATOM
M  V30 BEGIN BOND
M  V30 1 2 1 2
M  V30 2 1 2 3
M  V30 3 1 2 4
M  V30 4 2 3 5
M  V30 5 1 3 6
M  V30 6 1 4 7
M  V30 7 1 5 8
M  V30 8 1 7 9
M  V30 9 1 7 10
M  V30 10 1 8 11
M  V30 11 1 9 12
M  V30 12 1 9 13
M  V30 13 1 10 14
M  V30 14 1 10 15
M  V30 15 1 11 16
M  V30 16 1 5 7
M  V30 17 1 9 11
M  V30 18 1 14 16
M  V30 END BOND
M  V30 END CTAB
M  END
>  <Molecule Name>
cyperotundone

>  <Molecule Name 2>
cyperotundone

>  <Database>
Essential Oil Database

>  <InChI>
InChI=1S/C15H22O/c1-9-5-6-11-7-12-10(2)13(16)8-15(9,12)14(11,3)4/h9,11H,5-8H2,1-4H3

>  <InChI-Key>
GIGKXOAUYMWORB-UHFFFAOYSA-N

>  <Smiles>
CC(CCC(C1)C2(C)C)C2(C2)C1=C(C)C2=O

>  <Molecular Formula>
C15H22O

$$$$
mustakone
Actelion Java MolfileCreator 2.0

  0  0  0  0  0  0              0 V3000
M  V30 BEGIN CTAB
M  V30 COUNTS 16 18 0 0 0
M  V30 BEGIN ATOM
M  V30 1 O 0.0 0.0 0.0 0
M  V30 2 C -0.8437 -1.1652 0.0 0
M  V30 3 C -0.2008 -2.3036 0.0 0
M  V30 4 C -2.4375 -1.2455 0.0 0
M  V30 5 C -1.0714 -3.4822 0.0 0
M  V30 6 C -3.8706 -2.1697 0.0 0
M  V30 7 C -1.8482 -2.3839 0.0 0
M  V30 8 C -2.7456 -3.2947 0.0 0
M  V30 9 C -0.4017 -4.5938 0.0 0
M  V30 10 C -4.7412 -0.7902 0.0 0
M  V30 11 C -5.1296 -2.9465 0.0 0
M  V30 12 C -3.5625 -3.0804 0.0 0 CFG=1
M  V30 13 C -3.7501 -0.991 0.0 0
M  V30 14 C -4.4331 -4.1652 0.0 0
M  V30 15 C -3.8304 -5.3037 0.0 0
M  V30 16 C -6.0269 -3.9777 0.0 0
M  V30 END ATOM
M  V30 BEGIN BOND
M  V30 1 2 1 2
M  V30 2 1 2 3
M  V30 3 1 2 4
M  V30 4 2 3 5
M  V30 5 1 4 6
M  V30 6 1 4 7
M  V30 7 1 5 8
M  V30 8 1 5 9
M  V30 9 1 6 10
M  V30 10 1 6 11
M  V30 11 1 7 12
M  V30 12 1 10 13
M  V30 13 1 12 14 CFG=3
M  V30 14 1 14 15
M  V30 15 1 14 16
M  V30 16 1 6 8
M  V30 17 1 7 8
M  V30 18 1 12 13
M  V30 END BOND
M  V30 BEGIN COLLECTION
M  V30 MDLV30/STERAC1 ATOMS=(1 12)
M  V30 END COLLECTION
M  V30 END CTAB
M  END
>  <Molecule Name>
mustakone

>  <Molecule Name 2>
mustakone

>  <Database>
Essential Oil Database

>  <InChI>
InChI=1S/C15H22O/c1-8(2)10-5-6-15(4)13-9(3)7-11(16)14(15)12(10)13/h7-8,10,12-14H,5-6H2,1-4H3/t10-,12?,13?,14?,15?/m0/s1

>  <InChI-Key>
CTFSUCDHRVDRKG-MGZXXMPLSA-N

>  <Smiles>
CC(C)C(CCC1(C)C2C(C)=C3)C2C1C3=O

>  <Molecular Formula>
C15H22O

$$$$
nopinone
Actelion Java MolfileCreator 2.0

  0  0  0  0  0  0              0 V3000
M  V30 BEGIN CTAB
M  V30 COUNTS 10 11 0 0 0
M  V30 BEGIN ATOM
M  V30 1 O 0.0 0.0 0.0 0
M  V30 2 C -0.7871 1.3442 0.0 0
M  V30 3 C -2.3372 1.4653 0.0 0
M  V30 4 C -0.1332 2.6884 0.0 0
M  V30 5 C -3.1364 2.8095 0.0 0
M  V30 6 C -2.1313 2.8095 0.0 0
M  V30 7 C -0.9324 4.0326 0.0 0
M  V30 8 C -2.4825 4.1537 0.0 0
M  V30 9 C -4.3232 3.8146 0.0 0
M  V30 10 C -4.3232 2.0465 0.0 0
M  V30 END ATOM
M  V30 BEGIN BOND
M  V30 1 2 1 2
M  V30 2 1 2 3
M  V30 3 1 2 4
M  V30 4 1 3 5
M  V30 5 1 3 6
M  V30 6 1 4 7
M  V30 7 1 5 8
M  V30 8 1 5 9
M  V30 9 1 5 10
M  V30 10 1 6 8
M  V30 11 1 7 8
M  V30 END BOND
M  V30 END CTAB
M  END
>  <Molecule Name>
nopinone

>  <Molecule Name 2>
nopinone

>  <Database>
Essential Oil Database

>  <InChI>
InChI=1S/C9H14O/c1-9(2)6-3-4-8(10)7(9)5-6/h6-7H,3-5H2,1-2H3

>  <InChI-Key>
XZFDKWMYCUEKSS-UHFFFAOYSA-N

>  <Smiles>
CC(C)(C(C1)CC2)C1C2=O

>  <Molecular Formula>
C9H14O

$$$$
alpha-cyperone
Actelion Java MolfileCreator 2.0

  0  0  0  0  0  0              0 V3000
M  V30 BEGIN CTAB
M  V30 COUNTS 17 18 0 0 0
M  V30 BEGIN ATOM
M  V30 1 O 0.0 0.0 0.0 0
M  V30 2 C -1.3656 -0.652 0.0 0
M  V30 3 C -2.7312 0.1353 0.0 0
M  V30 4 C -1.4886 -1.9807 0.0 0
M  V30 5 C -4.0968 -0.5167 0.0 0
M  V30 6 C -2.8542 1.7101 0.0 0
M  V30 7 C -2.8542 -2.6451 0.0 0
M  V30 8 C -4.2198 -1.8454 0.0 0 CFG=1
M  V30 9 C -5.4624 0.2706 0.0 0
M  V30 10 C -5.5855 -2.5097 0.0 0
M  V30 11 C -4.3429 -3.1741 0.0 0
M  V30 12 C -6.828 -0.3813 0.0 0 CFG=1
M  V30 13 C -6.9511 -1.7101 0.0 0
M  V30 14 C -8.1937 0.4059 0.0 0
M  V30 15 O -8.3167 -2.3744 0.0 0
M  V30 16 C -8.3167 1.9807 0.0 0
M  V30 17 C -9.5593 -0.246 0.0 0
M  V30 END ATOM
M  V30 BEGIN BOND
M  V30 1 2 1 2
M  V30 2 1 2 3
M  V30 3 1 2 4
M  V30 4 2 3 5
M  V30 5 1 3 6
M  V30 6 1 4 7
M  V30 7 1 5 8
M  V30 8 1 5 9
M  V30 9 1 8 10
M  V30 10 1 8 11 CFG=3
M  V30 11 1 9 12
M  V30 12 1 10 13
M  V30 13 1 12 14 CFG=1
M  V30 14 1 13 15
M  V30 15 2 14 16
M  V30 16 1 14 17
M  V30 17 1 7 8
M  V30 18 1 12 13
M  V30 END BOND
M  V30 BEGIN COLLECTION
M  V30 MDLV30/STERAC1 ATOMS=(2 8 12)
M  V30 END COLLECTION
M  V30 END CTAB
M  END
>  <Molecule Name>
alpha-cyperone

>  <Molecule Name 2>
alpha-cyperone

>  <Database>
Essential Oil Database

>  <InChI>
InChI=1S/C15H22O2/c1-9(2)11-7-12-10(3)13(16)5-6-15(12,4)8-14(11)17/h11,14,17H,1,5-8H2,2-4H3/t11-,14?,15+/m1/s1

>  <InChI-Key>
JJQLZXVYTGKGNA-QTWGFKIWSA-N

>  <Smiles>
C[C@](CC1)(CC([C@H](C2)C(C)=C)O)C2=C(C)C1=O

>  <Molecular Formula>
C15H22O2

$$$$
cyperol
Actelion Java MolfileCreator 2.0

  0  0  0  0  0  0              0 V3000
M  V30 BEGIN CTAB
M  V30 COUNTS 16 17 0 0 0
M  V30 BEGIN ATOM
M  V30 1 O 0.0 0.0 0.0 0
M  V30 2 C -1.3351 0.7818 0.0 0 CFG=1
M  V30 3 C -2.6702 0.1323 0.0 0
M  V30 4 C -1.4554 2.3214 0.0 0
M  V30 5 C -4.0053 0.9141 0.0 0
M  V30 6 C -2.7905 -1.1667 0.0 0
M  V30 7 C -2.7905 3.1032 0.0 0
M  V30 8 C -4.1256 2.4537 0.0 0 CFG=2
M  V30 9 C -5.3405 0.2646 0.0 0
M  V30 10 C -5.4607 3.2355 0.0 0
M  V30 11 C -4.2459 3.9933 0.0 0
M  V30 12 C -6.6756 1.0464 0.0 0 CFG=1
M  V30 13 C -6.7959 2.598 0.0 0
M  V30 14 C -8.0107 0.3969 0.0 0
M  V30 15 C -9.3458 1.1787 0.0 0
M  V30 16 C -8.131 -0.9021 0.0 0
M  V30 END ATOM
M  V30 BEGIN BOND
M  V30 1 1 2 1 CFG=1
M  V30 2 1 2 3
M  V30 3 1 2 4
M  V30 4 2 3 5
M  V30 5 1 3 6
M  V30 6 1 4 7
M  V30 7 1 5 8
M  V30 8 1 5 9
M  V30 9 1 8 10
M  V30 10 1 8 11 CFG=3
M  V30 11 1 9 12
M  V30 12 1 10 13
M  V30 13 1 12 14 CFG=3
M  V30 14 2 14 15
M  V30 15 1 14 16
M  V30 16 1 7 8
M  V30 17 1 12 13
M  V30 END BOND
M  V30 BEGIN COLLECTION
M  V30 MDLV30/STERAC1 ATOMS=(3 2 8 12)
M  V30 END COLLECTION
M  V30 END CTAB
M  END
>  <Molecule Name>
cyperol

>  <Molecule Name 2>
cyperol

>  <Database>
Essential Oil Database

>  <InChI>
InChI=1S/C15H24O/c1-10(2)12-5-7-15(4)8-6-14(16)11(3)13(15)9-12/h12,14,16H,1,5-9H2,2-4H3/t12-,14-,15+/m1/s1

>  <InChI-Key>
APWLDLGOYJHNIK-YUELXQCFSA-N

>  <Smiles>
C[C@](CC[C@H](C1)C(C)=C)(CC2)C1=C(C)[C@@H]2O

>  <Molecular Formula>
C15H24O

$$$$
isocyperol
Actelion Java MolfileCreator 2.0

  0  0  0  0  0  0              0 V3000
M  V30 BEGIN CTAB
M  V30 COUNTS 16 17 0 0 0
M  V30 BEGIN ATOM
M  V30 1 O 0.0 0.0 0.0 0
M  V30 2 C -1.3351 0.7818 0.0 0 CFG=1
M  V30 3 C -2.6702 0.1323 0.0 0
M  V30 4 C -1.4554 2.3214 0.0 0
M  V30 5 C -2.7905 -1.1667 0.0 0
M  V30 6 C -4.0053 0.9141 0.0 0 CFG=1
M  V30 7 C -2.7905 3.1032 0.0 0
M  V30 8 C -4.1256 2.4537 0.0 0 CFG=2
M  V30 9 C -5.3405 0.2646 0.0 0
M  V30 10 C -5.4607 3.2355 0.0 0
M  V30 11 C -4.2459 3.9933 0.0 0
M  V30 12 C -6.6756 1.0464 0.0 0 CFG=1
M  V30 13 C -6.7959 2.598 0.0 0
M  V30 14 C -8.0107 0.3969 0.0 0
M  V30 15 C -9.3458 1.1787 0.0 0
M  V30 16 C -8.131 -0.9021 0.0 0
M  V30 END ATOM
M  V30 BEGIN BOND
M  V30 1 1 2 1 CFG=1
M  V30 2 1 2 3
M  V30 3 1 2 4
M  V30 4 2 3 5
M  V30 5 1 3 6
M  V30 6 1 4 7
M  V30 7 1 6 8
M  V30 8 1 6 9 CFG=3
M  V30 9 1 8 10
M  V30 10 1 8 11 CFG=3
M  V30 11 1 9 12
M  V30 12 1 10 13
M  V30 13 1 12 14 CFG=3
M  V30 14 2 14 15
M  V30 15 1 14 16
M  V30 16 1 7 8
M  V30 17 1 12 13
M  V30 END BOND
M  V30 BEGIN COLLECTION
M  V30 MDLV30/STERAC1 ATOMS=(4 2 6 8 12)
M  V30 END COLLECTION
M  V30 END CTAB
M  END
>  <Molecule Name>
isocyperol

>  <Molecule Name 2>
isocyperol

>  <Database>
Essential Oil Database

>  <InChI>
InChI=1S/C15H24O/c1-10(2)12-5-7-15(4)8-6-14(16)11(3)13(15)9-12/h12-14,16H,1,3,5-9H2,2,4H3/t12-,13+,14-,15+/m1/s1

>  <InChI-Key>
CZFHAODYOVXPIQ-BARDWOONSA-N

>  <Smiles>
C[C@](CC[C@H](C1)C(C)=C)(CC[C@H]2O)[C@@H]1C2=C

>  <Molecular Formula>
C15H24O

$$$$
alpha-thujone
Actelion Java MolfileCreator 2.0

  0  0  0  0  0  0              0 V3000
M  V30 BEGIN CTAB
M  V30 COUNTS 11 12 0 0 0
M  V30 BEGIN ATOM
M  V30 1 O 0.0 0.0 0.0 0
M  V30 2 C -1.5831 0.1236 0.0 0
M  V30 3 C -2.5231 1.4099 0.0 0 CFG=1
M  V30 4 C -2.5231 -0.9152 0.0 0
M  V30 5 C -4.032 1.0513 0.0 0 CFG=2
M  V30 6 C -2.1644 2.9189 0.0 0
M  V30 7 C -4.032 -0.3092 0.0 0 CFG=1
M  V30 8 C -5.4049 0.3957 0.0 0
M  V30 9 C -4.7988 -1.5089 0.0 0
M  V30 10 C -6.3696 -1.546 0.0 0
M  V30 11 C -4.0691 -2.5478 0.0 0
M  V30 END ATOM
M  V30 BEGIN BOND
M  V30 1 2 1 2
M  V30 2 1 2 3
M  V30 3 1 2 4
M  V30 4 1 3 5
M  V30 5 1 3 6 CFG=1
M  V30 6 1 4 7
M  V30 7 1 5 8 CFG=3
M  V30 8 1 7 9 CFG=1
M  V30 9 1 9 10
M  V30 10 1 9 11
M  V30 11 1 5 7
M  V30 12 1 7 8
M  V30 END BOND
M  V30 BEGIN COLLECTION
M  V30 MDLV30/STERAC1 ATOMS=(3 3 5 7)
M  V30 END COLLECTION
M  V30 END CTAB
M  END
>  <Molecule Name>
alpha-thujone

>  <Molecule Name 2>
alpha-thujone

>  <Database>
Essential Oil Database

>  <InChI>
InChI=1S/C10H16O/c1-6(2)10-4-8(10)7(3)9(11)5-10/h6-8H,4-5H2,1-3H3/t7-,8-,10+/m1/s1

>  <InChI-Key>
USMNOWBWPHYOEA-MRTMQBJTSA-N

>  <Smiles>
CC(C)[C@](C1)(C2)[C@H]1[C@@H](C)C2=O

>  <Molecular Formula>
C10H16O

$$$$
cembrene
Actelion Java MolfileCreator 2.0

  0  0  0  0  0  0              0 V3000
M  V30 BEGIN CTAB
M  V30 COUNTS 20 20 0 0 0
M  V30 BEGIN ATOM
M  V30 1 C 0.0 0.0 0.0 0
M  V30 2 C 1.0442 1.0442 0.0 0
M  V30 3 C -0.1305 -1.4097 0.0 0
M  V30 4 C -1.5141 0.8353 0.0 0
M  V30 5 C 1.6316 2.5583 0.0 0
M  V30 6 C 0.4568 -2.6497 0.0 0
M  V30 7 C 3.0021 3.0674 0.0 0 CFG=2
M  V30 8 C 1.5141 -3.4459 0.0 0
M  V30 9 C 2.8716 4.7382 0.0 0
M  V30 10 C 4.3727 2.8324 0.0 0
M  V30 11 C 2.8847 -2.9369 0.0 0
M  V30 12 C 1.4227 5.5866 0.0 0
M  V30 13 C 4.0594 5.5866 0.0 0
M  V30 14 C 5.43 2.0362 0.0 0
M  V30 15 C 4.2552 -3.1718 0.0 0
M  V30 16 C 2.7541 -1.2661 0.0 0
M  V30 17 C 5.2995 0.6265 0.0 0
M  V30 18 C 5.2995 -2.1276 0.0 0
M  V30 19 C 5.8868 -0.6134 0.0 0
M  V30 20 C 3.6678 0.3785 0.0 0
M  V30 END ATOM
M  V30 BEGIN BOND
M  V30 1 1 1 2
M  V30 2 2 1 3
M  V30 3 1 1 4
M  V30 4 2 2 5
M  V30 5 1 3 6
M  V30 6 1 5 7
M  V30 7 1 6 8
M  V30 8 1 7 9 CFG=3
M  V30 9 1 7 10
M  V30 10 2 8 11
M  V30 11 1 9 12
M  V30 12 1 9 13
M  V30 13 1 10 14
M  V30 14 1 11 15
M  V30 15 1 11 16
M  V30 16 1 14 17
M  V30 17 1 15 18
M  V30 18 2 17 19
M  V30 19 1 17 20
M  V30 20 1 18 19
M  V30 END BOND
M  V30 BEGIN COLLECTION
M  V30 MDLV30/STERAC1 ATOMS=(1 7)
M  V30 END COLLECTION
M  V30 END CTAB
M  END
>  <Molecule Name>
cembrene

>  <Molecule Name 2>
cembrene

>  <Database>
Essential Oil Database

>  <InChI>
InChI=1S/C20H32/c1-16(2)20-14-12-18(4)10-6-8-17(3)9-7-11-19(5)13-15-20/h8,10-12,14,16,20H,6-7,9,13,15H2,1-5H3/b14-12+,17-8+,18-10-,19-11+/t20-/m0/s1

>  <InChI-Key>
DMHADBQKVWXPPM-QXIQWJTQSA-N

>  <Smiles>
CC(C)C1/C=C/C(\C)=C\C/C=C(\C)/CC/C=C(\C)/CC1

>  <Molecular Formula>
C20H32

$$$$
cubebol
Actelion Java MolfileCreator 2.0

  0  0  0  0  0  0              0 V3000
M  V30 BEGIN CTAB
M  V30 COUNTS 16 18 0 0 0
M  V30 BEGIN ATOM
M  V30 1 O 0.0 0.0 0.0 0
M  V30 2 C 0.1193 -1.4183 0.0 0 CFG=2
M  V30 3 C 1.4979 -0.8616 0.0 0
M  V30 4 C -0.106 -2.85 0.0 0
M  V30 5 C -1.5774 -1.3653 0.0 0
M  V30 6 C 2.2402 -2.0281 0.0 0 CFG=2
M  V30 7 C 2.9295 -0.6495 0.0 0 CFG=1
M  V30 8 C 1.2195 -3.3272 0.0 0
M  V30 9 C 2.9958 -3.1947 0.0 0 CFG=1
M  V30 10 C 4.3612 -0.4374 0.0 0 CFG=2
M  V30 11 C 4.4275 -2.9826 0.0 0
M  V30 12 C 2.1342 -4.4407 0.0 0
M  V30 13 C 4.9975 1.0737 0.0 0
M  V30 14 C 5.1035 -1.6039 0.0 0
M  V30 15 C 4.0696 2.5053 0.0 0
M  V30 16 C 6.4291 1.2858 0.0 0
M  V30 END ATOM
M  V30 BEGIN BOND
M  V30 1 1 2 1 CFG=3
M  V30 2 1 2 3
M  V30 3 1 2 4
M  V30 4 1 2 5
M  V30 5 1 6 3 CFG=1
M  V30 6 1 7 3 CFG=3
M  V30 7 1 4 8
M  V30 8 1 6 9
M  V30 9 1 7 10
M  V30 10 1 9 11
M  V30 11 1 9 12 CFG=1
M  V30 12 1 10 13 CFG=3
M  V30 13 1 10 14
M  V30 14 1 13 15
M  V30 15 1 13 16
M  V30 16 1 6 7
M  V30 17 1 6 8
M  V30 18 1 11 14
M  V30 END BOND
M  V30 BEGIN COLLECTION
M  V30 MDLV30/STERAC1 ATOMS=(5 2 6 7 9 10)
M  V30 END COLLECTION
M  V30 END CTAB
M  END
>  <Molecule Name>
cubebol

>  <Molecule Name 2>
cubebol

>  <Database>
Essential Oil Database

>  <InChI>
InChI=1S/C15H26O/c1-9(2)11-6-5-10(3)15-8-7-14(4,16)13(15)12(11)15/h9-13,16H,5-8H2,1-4H3/t10-,11+,12+,13?,14+,15-/m1/s1

>  <InChI-Key>
KONGRWVLXLWGDV-YFCFOZDUSA-N

>  <Smiles>
CC(C)[C@H]1[C@@H](C2[C@](C)(CC3)O)[C@@]23[C@H](C)CC1

>  <Molecular Formula>
C15H26O

$$$$
cuparene
Actelion Java MolfileCreator 2.0

  0  0  0  0  0  0              0 V3000
M  V30 BEGIN CTAB
M  V30 COUNTS 15 16 0 0 0
M  V30 BEGIN ATOM
M  V30 1 C 0.0 0.0 0.0 0
M  V30 2 C 1.3559 -0.2134 0.0 0
M  V30 3 C -0.6277 1.5568 0.0 0
M  V30 4 C -1.1048 -0.9667 0.0 0 CFG=2
M  V30 5 C 2.2097 1.0044 0.0 0
M  V30 6 C 0.2259 2.7747 0.0 0
M  V30 7 C -2.4357 -1.72 0.0 0
M  V30 8 C -0.0251 -1.72 0.0 0
M  V30 9 C -2.2097 0.2511 0.0 0
M  V30 10 C 1.5819 2.5612 0.0 0
M  V30 11 C -2.059 -3.0258 0.0 0
M  V30 12 C -4.0427 -1.9209 0.0 0
M  V30 13 C -3.5531 -0.5147 0.0 0
M  V30 14 C -0.6528 -3.0258 0.0 0
M  V30 15 C 2.4357 3.7791 0.0 0
M  V30 END ATOM
M  V30 BEGIN BOND
M  V30 1 2 1 2
M  V30 2 1 1 3
M  V30 3 1 1 4
M  V30 4 1 2 5
M  V30 5 2 3 6
M  V30 6 1 4 7
M  V30 7 1 4 8
M  V30 8 1 4 9 CFG=3
M  V30 9 2 5 10
M  V30 10 1 7 11
M  V30 11 1 7 12
M  V30 12 1 7 13
M  V30 13 1 8 14
M  V30 14 1 10 15
M  V30 15 1 6 10
M  V30 16 1 11 14
M  V30 END BOND
M  V30 BEGIN COLLECTION
M  V30 MDLV30/STERAC1 ATOMS=(1 4)
M  V30 END COLLECTION
M  V30 END CTAB
M  END
>  <Molecule Name>
cuparene

>  <Molecule Name 2>
cuparene

>  <Database>
Essential Oil Database

>  <InChI>
InChI=1S/C15H22/c1-12-6-8-13(9-7-12)15(4)11-5-10-14(15,2)3/h6-9H,5,10-11H2,1-4H3/t15-/m1/s1

>  <InChI-Key>
SLKPBCXNFNIJSV-OAHLLOKOSA-N

>  <Smiles>
CC(C)(CCC1)C1(C)c1ccc(C)cc1

>  <Molecular Formula>
C15H22

$$$$
dehydroabietal
Actelion Java MolfileCreator 2.0

  0  0  0  0  0  0              0 V3000
M  V30 BEGIN CTAB
M  V30 COUNTS 21 23 0 0 0
M  V30 BEGIN ATOM
M  V30 1 O 0.0 0.0 0.0 0
M  V30 2 C 0.1536 1.6388 0.0 0
M  V30 3 C 1.4596 2.3174 0.0 0 CFG=1
M  V30 4 C 2.8679 2.4454 0.0 0 CFG=1
M  V30 5 C 0.6145 3.7642 0.0 0
M  V30 6 C 1.6132 0.9346 0.0 0
M  V30 7 C 3.5721 3.8922 0.0 0 CFG=1
M  V30 8 C 3.5721 1.2547 0.0 0
M  V30 9 C 1.2931 5.211 0.0 0
M  V30 10 C 4.9805 4.0203 0.0 0
M  V30 11 C 2.7271 5.339 0.0 0
M  V30 12 C 4.2763 5.339 0.0 0
M  V30 13 C 4.9805 1.3827 0.0 0
M  V30 14 C 5.6591 2.8295 0.0 0
M  V30 15 C 5.6591 5.4671 0.0 0
M  V30 16 C 7.0675 2.9576 0.0 0
M  V30 17 C 7.0675 5.5951 0.0 0
M  V30 18 C 7.7589 4.4044 0.0 0
M  V30 19 C 9.1673 4.5324 0.0 0
M  V30 20 C 9.8459 3.3417 0.0 0
M  V30 21 C 9.8459 5.9792 0.0 0
M  V30 END ATOM
M  V30 BEGIN BOND
M  V30 1 2 1 2
M  V30 2 1 2 3
M  V30 3 1 3 4
M  V30 4 1 3 5
M  V30 5 1 3 6 CFG=1
M  V30 6 1 4 7
M  V30 7 1 4 8 CFG=1
M  V30 8 1 5 9
M  V30 9 1 7 10
M  V30 10 1 7 11
M  V30 11 1 7 12 CFG=1
M  V30 12 1 8 13
M  V30 13 2 10 14
M  V30 14 1 10 15
M  V30 15 1 14 16
M  V30 16 2 15 17
M  V30 17 2 16 18
M  V30 18 1 18 19
M  V30 19 1 19 20
M  V30 20 1 19 21
M  V30 21 1 9 11
M  V30 22 1 13 14
M  V30 23 1 17 18
M  V30 END BOND
M  V30 BEGIN COLLECTION
M  V30 MDLV30/STERAC1 ATOMS=(3 3 4 7)
M  V30 END COLLECTION
M  V30 END CTAB
M  END
>  <Molecule Name>
dehydroabietal

>  <Molecule Name 2>
dehydroabietal

>  <Database>
Essential Oil Database

>  <InChI>
InChI=1S/C20H28O/c1-14(2)15-6-8-17-16(12-15)7-9-18-19(3,13-21)10-5-11-20(17,18)4/h6,8,12-14,18H,5,7,9-11H2,1-4H3/t18-,19-,20+/m0/s1

>  <InChI-Key>
YCLCHPWRGSDZKL-SLFFLAALSA-N

>  <Smiles>
CC(C)c1cc(CC[C@@H]2[C@]3(C)CCC[C@@]2(C)C=O)c3cc1

>  <Molecular Formula>
C20H28O

$$$$
dehydroabietol
Actelion Java MolfileCreator 2.0

  0  0  0  0  0  0              0 V3000
M  V30 BEGIN CTAB
M  V30 COUNTS 21 23 0 0 0
M  V30 BEGIN ATOM
M  V30 1 O 0.0 0.0 0.0 0
M  V30 2 C 0.1536 1.6388 0.0 0
M  V30 3 C 1.4596 2.3174 0.0 0 CFG=1
M  V30 4 C 2.8679 2.4454 0.0 0 CFG=1
M  V30 5 C 0.6145 3.7642 0.0 0
M  V30 6 C 1.6132 0.9346 0.0 0
M  V30 7 C 3.5721 3.8922 0.0 0 CFG=1
M  V30 8 C 3.5721 1.2547 0.0 0
M  V30 9 C 1.2931 5.211 0.0 0
M  V30 10 C 4.9805 4.0203 0.0 0
M  V30 11 C 2.7271 5.339 0.0 0
M  V30 12 C 4.2763 5.339 0.0 0
M  V30 13 C 4.9805 1.3827 0.0 0
M  V30 14 C 5.6591 2.8295 0.0 0
M  V30 15 C 5.6591 5.4671 0.0 0
M  V30 16 C 7.0675 2.9576 0.0 0
M  V30 17 C 7.0675 5.5951 0.0 0
M  V30 18 C 7.7589 4.4044 0.0 0
M  V30 19 C 9.1673 4.5324 0.0 0
M  V30 20 C 9.8459 3.3417 0.0 0
M  V30 21 C 9.8459 5.9792 0.0 0
M  V30 END ATOM
M  V30 BEGIN BOND
M  V30 1 1 1 2
M  V30 2 1 2 3
M  V30 3 1 3 4
M  V30 4 1 3 5
M  V30 5 1 3 6 CFG=1
M  V30 6 1 4 7
M  V30 7 1 4 8 CFG=1
M  V30 8 1 5 9
M  V30 9 1 7 10
M  V30 10 1 7 11
M  V30 11 1 7 12 CFG=1
M  V30 12 1 8 13
M  V30 13 2 10 14
M  V30 14 1 10 15
M  V30 15 1 14 16
M  V30 16 2 15 17
M  V30 17 2 16 18
M  V30 18 1 18 19
M  V30 19 1 19 20
M  V30 20 1 19 21
M  V30 21 1 9 11
M  V30 22 1 13 14
M  V30 23 1 17 18
M  V30 END BOND
M  V30 BEGIN COLLECTION
M  V30 MDLV30/STERAC1 ATOMS=(3 3 4 7)
M  V30 END COLLECTION
M  V30 END CTAB
M  END
>  <Molecule Name>
dehydroabietol

>  <Molecule Name 2>
dehydroabietol

>  <Database>
Essential Oil Database

>  <InChI>
InChI=1S/C20H30O/c1-14(2)15-6-8-17-16(12-15)7-9-18-19(3,13-21)10-5-11-20(17,18)4/h6,8,12,14,18,21H,5,7,9-11,13H2,1-4H3/t18-,19-,20+/m0/s1

>  <InChI-Key>
WSKGRAGZAQRSED-SLFFLAALSA-N

>  <Smiles>
CC(C)c1cc(CC[C@@H]2[C@]3(C)CCC[C@@]2(C)CO)c3cc1

>  <Molecular Formula>
C20H30O

$$$$
occidentalol
Actelion Java MolfileCreator 2.0

  0  0  0  0  0  0              0 V3000
M  V30 BEGIN CTAB
M  V30 COUNTS 16 17 0 0 0
M  V30 BEGIN ATOM
M  V30 1 O 0.0 0.0 0.0 0
M  V30 2 C -0.7808 -1.1102 0.0 0
M  V30 3 C -2.1351 -0.305 0.0 0 CFG=1
M  V30 4 C 0.3294 -1.7691 0.0 0
M  V30 5 C -1.5861 -2.2205 0.0 0
M  V30 6 C -3.4894 -0.9638 0.0 0
M  V30 7 C -2.2571 1.2566 0.0 0
M  V30 8 C -4.8437 -0.1586 0.0 0 CFG=1
M  V30 9 C -3.6114 2.0619 0.0 0
M  V30 10 C -6.198 -0.8174 0.0 0
M  V30 11 C -4.9657 1.4031 0.0 0 CFG=2
M  V30 12 C -7.5523 -0.0122 0.0 0
M  V30 13 C -6.32 -2.1351 0.0 0
M  V30 14 C -6.32 2.1961 0.0 0
M  V30 15 C -5.0877 2.9648 0.0 0
M  V30 16 C -7.6743 1.5495 0.0 0
M  V30 END ATOM
M  V30 BEGIN BOND
M  V30 1 1 1 2
M  V30 2 1 3 2 CFG=1
M  V30 3 1 2 4
M  V30 4 1 2 5
M  V30 5 1 3 6
M  V30 6 1 3 7
M  V30 7 1 8 6 CFG=1
M  V30 8 1 7 9
M  V30 9 1 8 10
M  V30 10 1 8 11
M  V30 11 2 10 12
M  V30 12 1 10 13
M  V30 13 1 11 14
M  V30 14 1 11 15 CFG=3
M  V30 15 1 12 16
M  V30 16 1 9 11
M  V30 17 2 14 16
M  V30 END BOND
M  V30 BEGIN COLLECTION
M  V30 MDLV30/STERAC1 ATOMS=(3 3 8 11)
M  V30 END COLLECTION
M  V30 END CTAB
M  END
>  <Molecule Name>
occidentalol

>  <Molecule Name 2>
occidentalol

>  <Database>
Essential Oil Database

>  <InChI>
InChI=1S/C15H24O/c1-11-6-5-8-15(4)9-7-12(10-13(11)15)14(2,3)16/h5-6,8,12-13,16H,7,9-10H2,1-4H3/t12-,13+,15+/m1/s1

>  <InChI-Key>
AMZWKSYAMHGGSR-IPYPFGDCSA-N

>  <Smiles>
CC(C)([C@H]1C[C@H]2C(C)=CC=C[C@@]2(C)CC1)O

>  <Molecular Formula>
C15H24O

$$$$
seselin
Actelion Java MolfileCreator 2.0

  0  0  0  0  0  0              0 V3000
M  V30 BEGIN CTAB
M  V30 COUNTS 17 19 0 0 0
M  V30 BEGIN ATOM
M  V30 1 O 0.0 0.0 0.0 0
M  V30 2 C -0.7657 1.3281 0.0 0
M  V30 3 O -2.2973 1.4478 0.0 0
M  V30 4 C -0.1316 2.6563 0.0 0
M  V30 5 C -3.0751 2.7759 0.0 0
M  V30 6 C -0.9093 3.9844 0.0 0
M  V30 7 C -4.6066 2.8956 0.0 0
M  V30 8 C -2.4409 4.1041 0.0 0
M  V30 9 C -5.3964 4.2238 0.0 0
M  V30 10 C -5.3964 1.8067 0.0 0
M  V30 11 C -3.2187 5.4323 0.0 0
M  V30 12 O -6.9279 4.3434 0.0 0
M  V30 13 C -4.7622 5.5519 0.0 0
M  V30 14 C -6.9279 1.9264 0.0 0
M  V30 15 C -7.7057 3.2546 0.0 0
M  V30 16 C -8.8783 4.2477 0.0 0
M  V30 17 C -8.8783 2.4888 0.0 0
M  V30 END ATOM
M  V30 BEGIN BOND
M  V30 1 2 1 2
M  V30 2 1 2 3
M  V30 3 1 2 4
M  V30 4 1 3 5
M  V30 5 2 4 6
M  V30 6 2 5 7
M  V30 7 1 5 8
M  V30 8 1 7 9
M  V30 9 1 7 10
M  V30 10 2 8 11
M  V30 11 1 9 12
M  V30 12 2 9 13
M  V30 13 2 10 14
M  V30 14 1 12 15
M  V30 15 1 15 16
M  V30 16 1 15 17
M  V30 17 1 6 8
M  V30 18 1 11 13
M  V30 19 1 14 15
M  V30 END BOND
M  V30 END CTAB
M  END
>  <Molecule Name>
seselin

>  <Molecule Name 2>
seselin

>  <Database>
Essential Oil Database

>  <InChI>
InChI=1S/C14H12O3/c1-14(2)8-7-10-11(17-14)5-3-9-4-6-12(15)16-13(9)10/h3-8H,1-2H3

>  <InChI-Key>
QUVCQYQEIOLHFZ-UHFFFAOYSA-N

>  <Smiles>
CC1(C)Oc2ccc(C=CC(O3)=O)c3c2C=C1

>  <Molecular Formula>
C14H12O3

$$$$
2-pentylbutyrate
Actelion Java MolfileCreator 2.0

  0  0  0  0  0  0              0 V3000
M  V30 BEGIN CTAB
M  V30 COUNTS 11 10 0 0 0
M  V30 BEGIN ATOM
M  V30 1 O 0.0 0.0 0.0 0
M  V30 2 C 1.1895 0.8496 0.0 0
M  V30 3 O 2.3791 0.1437 0.0 0 CHG=-1
M  V30 4 C 1.0588 2.5229 0.0 0 CFG=2
M  V30 5 C 2.2483 3.3856 0.0 0
M  V30 6 C -0.3921 3.3856 0.0 0
M  V30 7 C 3.4379 2.6797 0.0 0
M  V30 8 C -1.8431 2.6797 0.0 0
M  V30 9 C 4.6274 3.5425 0.0 0
M  V30 10 C 5.817 2.8366 0.0 0
M  V30 11 C 7.0066 3.6993 0.0 0
M  V30 END ATOM
M  V30 BEGIN BOND
M  V30 1 2 1 2
M  V30 2 1 2 3
M  V30 3 1 2 4
M  V30 4 1 4 5 CFG=1
M  V30 5 1 4 6
M  V30 6 1 5 7
M  V30 7 1 6 8
M  V30 8 1 7 9
M  V30 9 1 9 10
M  V30 10 1 10 11
M  V30 END BOND
M  V30 BEGIN COLLECTION
M  V30 MDLV30/STERAC1 ATOMS=(1 4)
M  V30 END COLLECTION
M  V30 END CTAB
M  END
>  <Molecule Name>
2-pentylbutyrate

>  <Molecule Name 2>
2-pentylbutyrate

>  <Database>
Essential Oil Database

>  <InChI>
InChI=1S/C9H18O2/c1-3-5-6-7-8(4-2)9(10)11/h8H,3-7H2,1-2H3,(H,10,11)/p-1/t8-/m0/s1

>  <InChI-Key>
DYWSVUBJGFTOQC-QMMMGPOBSA-M

>  <Smiles>
CCCCCC(CC)C([O-])=O

>  <Molecular Formula>
C9H17O2

$$$$
2-phenylethyltiglate
Actelion Java MolfileCreator 2.0

  0  0  0  0  0  0              0 V3000
M  V30 BEGIN CTAB
M  V30 COUNTS 15 15 0 0 0
M  V30 BEGIN ATOM
M  V30 1 O 0.0 0.0 0.0 0
M  V30 2 C -0.1305 1.6706 0.0 0
M  V30 3 O 1.0571 2.5189 0.0 0
M  V30 4 C -1.5792 2.5189 0.0 0
M  V30 5 C 2.2449 1.8141 0.0 0
M  V30 6 C -1.7097 4.1896 0.0 0
M  V30 7 C -3.028 1.8141 0.0 0
M  V30 8 C 3.4326 2.6625 0.0 0
M  V30 9 C -3.1585 5.0379 0.0 0
M  V30 10 C 4.6203 1.9577 0.0 0
M  V30 11 C 5.808 2.8061 0.0 0
M  V30 12 C 4.4898 0.5481 0.0 0
M  V30 13 C 6.9957 2.1013 0.0 0
M  V30 14 C 5.6775 -0.1435 0.0 0
M  V30 15 C 6.8652 0.6917 0.0 0
M  V30 END ATOM
M  V30 BEGIN BOND
M  V30 1 2 1 2
M  V30 2 1 2 3
M  V30 3 1 2 4
M  V30 4 1 3 5
M  V30 5 2 4 6
M  V30 6 1 4 7
M  V30 7 1 5 8
M  V30 8 1 6 9
M  V30 9 1 8 10
M  V30 10 2 10 11
M  V30 11 1 10 12
M  V30 12 1 11 13
M  V30 13 2 12 14
M  V30 14 2 13 15
M  V30 15 1 14 15
M  V30 END BOND
M  V30 END CTAB
M  END
>  <Molecule Name>
2-phenylethyltiglate

>  <Molecule Name 2>
2-phenylethyltiglate

>  <Database>
Essential Oil Database

>  <InChI>
InChI=1S/C13H16O2/c1-3-11(2)13(14)15-10-9-12-7-5-4-6-8-12/h3-8H,9-10H2,1-2H3/b11-3+

>  <InChI-Key>
KVMWYGAYARXPOL-QDEBKDIKSA-N

>  <Smiles>
C/C=C(\C)/C(OCCc1ccccc1)=O

>  <Molecular Formula>
C13H16O2

$$$$
ar-turmerone
Actelion Java MolfileCreator 2.0

  0  0  0  0  0  0              0 V3000
M  V30 BEGIN CTAB
M  V30 COUNTS 16 16 0 0 0
M  V30 BEGIN ATOM
M  V30 1 O 0.0 0.0 0.0 0
M  V30 2 C -1.4501 -0.7054 0.0 0
M  V30 3 C -2.9003 0.1437 0.0 0
M  V30 4 C -1.5808 -2.1164 0.0 0
M  V30 5 C -3.031 1.816 0.0 0
M  V30 6 C -0.3919 -2.8089 0.0 0 CFG=1
M  V30 7 C -4.4812 2.6652 0.0 0
M  V30 8 C -1.8421 2.6652 0.0 0
M  V30 9 C -0.5225 -4.2199 0.0 0
M  V30 10 C 0.7969 -1.9597 0.0 0
M  V30 11 C 0.6663 -4.9123 0.0 0
M  V30 12 C -1.9727 -4.9123 0.0 0
M  V30 13 C 0.5356 -6.3233 0.0 0
M  V30 14 C -2.1034 -6.3233 0.0 0
M  V30 15 C -0.9145 -7.0158 0.0 0
M  V30 16 C -1.0451 -8.4267 0.0 0
M  V30 END ATOM
M  V30 BEGIN BOND
M  V30 1 2 1 2
M  V30 2 1 2 3
M  V30 3 1 2 4
M  V30 4 2 3 5
M  V30 5 1 4 6
M  V30 6 1 5 7
M  V30 7 1 5 8
M  V30 8 1 6 9
M  V30 9 1 6 10 CFG=3
M  V30 10 2 9 11
M  V30 11 1 9 12
M  V30 12 1 11 13
M  V30 13 2 12 14
M  V30 14 2 13 15
M  V30 15 1 15 16
M  V30 16 1 14 15
M  V30 END BOND
M  V30 BEGIN COLLECTION
M  V30 MDLV30/STERAC1 ATOMS=(1 6)
M  V30 END COLLECTION
M  V30 END CTAB
M  END
>  <Molecule Name>
ar-turmerone

>  <Molecule Name 2>
ar-turmerone

>  <Database>
Essential Oil Database

>  <InChI>
InChI=1S/C15H20O/c1-11(2)9-15(16)10-13(4)14-7-5-12(3)6-8-14/h5-9,13H,10H2,1-4H3/t13-/m0/s1

>  <InChI-Key>
NAAJVHHFAXWBOK-ZDUSSCGKSA-N

>  <Smiles>
CC(CC(C=C(C)C)=O)c1ccc(C)cc1

>  <Molecular Formula>
C15H20O

$$$$
benzyl-3-hydroxybutyrate
Actelion Java MolfileCreator 2.0

  0  0  0  0  0  0              0 V3000
M  V30 BEGIN CTAB
M  V30 COUNTS 14 14 0 0 0
M  V30 BEGIN ATOM
M  V30 1 O 0.0 0.0 0.0 0
M  V30 2 C -0.1322 -1.4277 0.0 0
M  V30 3 O 1.0708 -2.1284 0.0 0
M  V30 4 C -1.5996 -2.1284 0.0 0
M  V30 5 C 2.2738 -1.2559 0.0 0
M  V30 6 C -3.067 -1.2559 0.0 0 CFG=1
M  V30 7 C 3.4768 -1.9565 0.0 0
M  V30 8 O -3.1992 0.4362 0.0 0
M  V30 9 C -4.5344 -1.9565 0.0 0
M  V30 10 C 4.6798 -1.084 0.0 0
M  V30 11 C 3.3446 -3.3843 0.0 0
M  V30 12 C 5.8829 -1.7847 0.0 0
M  V30 13 C 4.5476 -4.0982 0.0 0
M  V30 14 C 5.7507 -3.2124 0.0 0
M  V30 END ATOM
M  V30 BEGIN BOND
M  V30 1 2 1 2
M  V30 2 1 2 3
M  V30 3 1 2 4
M  V30 4 1 3 5
M  V30 5 1 4 6
M  V30 6 1 5 7
M  V30 7 1 6 8 CFG=3
M  V30 8 1 6 9
M  V30 9 2 7 10
M  V30 10 1 7 11
M  V30 11 1 10 12
M  V30 12 2 11 13
M  V30 13 2 12 14
M  V30 14 1 13 14
M  V30 END BOND
M  V30 BEGIN COLLECTION
M  V30 MDLV30/STERAC1 ATOMS=(1 6)
M  V30 END COLLECTION
M  V30 END CTAB
M  END
>  <Molecule Name>
benzyl-3-hydroxybutyrate

>  <Molecule Name 2>
benzyl-3-hydroxybutyrate

>  <Database>
Essential Oil Database

>  <InChI>
InChI=1S/C11H14O3/c1-9(12)7-11(13)14-8-10-5-3-2-4-6-10/h2-6,9,12H,7-8H2,1H3/t9-/m0/s1

>  <InChI-Key>
VIQYYDLSPZAIJW-VIFPVBQESA-N

>  <Smiles>
CC(CC(OCc1ccccc1)=O)O

>  <Molecular Formula>
C11H14O3

$$$$
benzyl crotonate
Actelion Java MolfileCreator 2.0

  0  0  0  0  0  0              0 V3000
M  V30 BEGIN CTAB
M  V30 COUNTS 13 13 0 0 0
M  V30 BEGIN ATOM
M  V30 1 O 0.0 0.0 0.0 0
M  V30 2 C -1.4383 -0.6997 0.0 0
M  V30 3 O -1.5679 -2.0991 0.0 0
M  V30 4 C -2.8766 0.1425 0.0 0
M  V30 5 C -0.3887 -2.7859 0.0 0
M  V30 6 C -3.0062 1.8011 0.0 0
M  V30 7 C -0.5183 -4.1854 0.0 0
M  V30 8 C -4.4445 2.6434 0.0 0
M  V30 9 C 0.6608 -4.8721 0.0 0
M  V30 10 C -1.9566 -4.8721 0.0 0
M  V30 11 C 0.5312 -6.2716 0.0 0
M  V30 12 C -2.0862 -6.2716 0.0 0
M  V30 13 C -0.907 -6.9583 0.0 0
M  V30 END ATOM
M  V30 BEGIN BOND
M  V30 1 2 1 2
M  V30 2 1 2 3
M  V30 3 1 2 4
M  V30 4 1 3 5
M  V30 5 2 4 6
M  V30 6 1 5 7
M  V30 7 1 6 8
M  V30 8 2 7 9
M  V30 9 1 7 10
M  V30 10 1 9 11
M  V30 11 2 10 12
M  V30 12 2 11 13
M  V30 13 1 12 13
M  V30 END BOND
M  V30 END CTAB
M  END
>  <Molecule Name>
benzyl crotonate

>  <Molecule Name 2>
benzyl crotonate

>  <Database>
Essential Oil Database

>  <InChI>
InChI=1S/C11H12O2/c1-2-6-11(12)13-9-10-7-4-3-5-8-10/h2-8H,9H2,1H3/b6-2+

>  <InChI-Key>
NCPTYZLUYHXITE-QHHAFSJGSA-N

>  <Smiles>
C/C=C/C(OCc1ccccc1)=O

>  <Molecular Formula>
C11H12O2

$$$$
benzyl dodecanoate
Actelion Java MolfileCreator 2.0

  0  0  0  0  0  0              0 V3000
M  V30 BEGIN CTAB
M  V30 COUNTS 21 21 0 0 0
M  V30 BEGIN ATOM
M  V30 1 O 0.0 0.0 0.0 0
M  V30 2 C -0.1104 -1.3805 0.0 0
M  V30 3 O 1.0823 -1.9659 0.0 0
M  V30 4 C -1.5241 -1.9659 0.0 0
M  V30 5 C 2.2751 -1.0713 0.0 0
M  V30 6 C -2.9378 -1.0713 0.0 0
M  V30 7 C 3.468 -1.6566 0.0 0
M  V30 8 C -4.3515 -1.6566 0.0 0
M  V30 9 C 4.6608 -0.762 0.0 0
M  V30 10 C 3.3575 -3.0372 0.0 0
M  V30 11 C -5.7652 -0.762 0.0 0
M  V30 12 C 5.8536 -1.3474 0.0 0
M  V30 13 C 4.5503 -3.6336 0.0 0
M  V30 14 C -7.1789 -1.3474 0.0 0
M  V30 15 C 5.7431 -2.728 0.0 0
M  V30 16 C -8.5926 -0.4528 0.0 0
M  V30 17 C -10.0064 -1.0381 0.0 0
M  V30 18 C -11.4201 -0.1435 0.0 0
M  V30 19 C -12.8338 -0.7289 0.0 0
M  V30 20 C -14.2475 0.1656 0.0 0
M  V30 21 C -15.6612 -0.4196 0.0 0
M  V30 END ATOM
M  V30 BEGIN BOND
M  V30 1 2 1 2
M  V30 2 1 2 3
M  V30 3 1 2 4
M  V30 4 1 3 5
M  V30 5 1 4 6
M  V30 6 1 5 7
M  V30 7 1 6 8
M  V30 8 2 7 9
M  V30 9 1 7 10
M  V30 10 1 8 11
M  V30 11 1 9 12
M  V30 12 2 10 13
M  V30 13 1 11 14
M  V30 14 2 12 15
M  V30 15 1 14 16
M  V30 16 1 16 17
M  V30 17 1 17 18
M  V30 18 1 18 19
M  V30 19 1 19 20
M  V30 20 1 20 21
M  V30 21 1 13 15
M  V30 END BOND
M  V30 END CTAB
M  END
>  <Molecule Name>
benzyl dodecanoate

>  <Molecule Name 2>
benzyl dodecanoate

>  <Database>
Essential Oil Database

>  <InChI>
InChI=1S/C19H30O2/c1-2-3-4-5-6-7-8-9-13-16-19(20)21-17-18-14-11-10-12-15-18/h10-12,14-15H,2-9,13,16-17H2,1H3

>  <InChI-Key>
QNRYOQRUGRVBRL-UHFFFAOYSA-N

>  <Smiles>
CCCCCCCCCCCC(OCc1ccccc1)=O

>  <Molecular Formula>
C19H30O2

$$$$
benzyl propionate
Actelion Java MolfileCreator 2.0

  0  0  0  0  0  0              0 V3000
M  V30 BEGIN CTAB
M  V30 COUNTS 12 12 0 0 0
M  V30 BEGIN ATOM
M  V30 1 O 0.0 0.0 0.0 0
M  V30 2 C -0.1154 -1.4437 0.0 0
M  V30 3 O 1.1318 -2.102 0.0 0
M  V30 4 C -1.5938 -2.102 0.0 0
M  V30 5 C 2.3792 -1.1549 0.0 0
M  V30 6 C -3.0722 -1.1549 0.0 0
M  V30 7 C 3.6266 -1.7786 0.0 0
M  V30 8 C 4.874 -0.8315 0.0 0
M  V30 9 C 3.5111 -3.2224 0.0 0
M  V30 10 C 6.1214 -1.4552 0.0 0
M  V30 11 C 4.7585 -3.8345 0.0 0
M  V30 12 C 6.0059 -2.899 0.0 0
M  V30 END ATOM
M  V30 BEGIN BOND
M  V30 1 2 1 2
M  V30 2 1 2 3
M  V30 3 1 2 4
M  V30 4 1 3 5
M  V30 5 1 4 6
M  V30 6 1 5 7
M  V30 7 2 7 8
M  V30 8 1 7 9
M  V30 9 1 8 10
M  V30 10 2 9 11
M  V30 11 2 10 12
M  V30 12 1 11 12
M  V30 END BOND
M  V30 END CTAB
M  END
>  <Molecule Name>
benzyl propionate

>  <Molecule Name 2>
benzyl propionate

>  <Database>
Essential Oil Database

>  <InChI>
InChI=1S/C10H12O2/c1-2-10(11)12-8-9-6-4-3-5-7-9/h3-7H,2,8H2,1H3

>  <InChI-Key>
VHOMAPWVLKRQAZ-UHFFFAOYSA-N

>  <Smiles>
CCC(OCc1ccccc1)=O

>  <Molecular Formula>
C10H12O2

$$$$
benzyl valerate
Actelion Java MolfileCreator 2.0

  0  0  0  0  0  0              0 V3000
M  V30 BEGIN CTAB
M  V30 COUNTS 14 14 0 0 0
M  V30 BEGIN ATOM
M  V30 1 O 0.0 0.0 0.0 0
M  V30 2 C -0.1138 -1.4231 0.0 0
M  V30 3 O 1.1157 -2.0265 0.0 0
M  V30 4 C -1.5711 -2.0265 0.0 0
M  V30 5 C 2.3452 -1.1043 0.0 0
M  V30 6 C -3.0283 -1.1043 0.0 0
M  V30 7 C 3.5748 -1.7077 0.0 0
M  V30 8 C -4.4856 -1.7077 0.0 0
M  V30 9 C 4.8044 -0.7855 0.0 0
M  V30 10 C 3.461 -3.1308 0.0 0
M  V30 11 C -5.9429 -0.7855 0.0 0
M  V30 12 C 6.034 -1.3889 0.0 0
M  V30 13 C 4.6905 -3.757 0.0 0
M  V30 14 C 5.9201 -2.812 0.0 0
M  V30 END ATOM
M  V30 BEGIN BOND
M  V30 1 2 1 2
M  V30 2 1 2 3
M  V30 3 1 2 4
M  V30 4 1 3 5
M  V30 5 1 4 6
M  V30 6 1 5 7
M  V30 7 1 6 8
M  V30 8 2 7 9
M  V30 9 1 7 10
M  V30 10 1 8 11
M  V30 11 1 9 12
M  V30 12 2 10 13
M  V30 13 2 12 14
M  V30 14 1 13 14
M  V30 END BOND
M  V30 END CTAB
M  END
>  <Molecule Name>
benzyl valerate

>  <Molecule Name 2>
benzyl valerate

>  <Database>
Essential Oil Database

>  <InChI>
InChI=1S/C12H16O2/c1-2-3-9-12(13)14-10-11-7-5-4-6-8-11/h4-8H,2-3,9-10H2,1H3

>  <InChI-Key>
YZJCDVRXBOPXSQ-UHFFFAOYSA-N

>  <Smiles>
CCCCC(OCc1ccccc1)=O

>  <Molecular Formula>
C12H16O2

$$$$
butyl crotonate
Actelion Java MolfileCreator 2.0

  0  0  0  0  0  0              0 V3000
M  V30 BEGIN CTAB
M  V30 COUNTS 10 9 0 0 0
M  V30 BEGIN ATOM
M  V30 1 O 0.0 0.0 0.0 0
M  V30 2 C -0.1272 1.6283 0.0 0
M  V30 3 O 1.0304 2.4553 0.0 0
M  V30 4 C -1.5393 2.4553 0.0 0
M  V30 5 C 2.1881 1.7683 0.0 0
M  V30 6 C -1.6665 4.0837 0.0 0
M  V30 7 C 3.3458 2.5952 0.0 0
M  V30 8 C -3.0786 4.9106 0.0 0
M  V30 9 C 4.5035 1.9082 0.0 0
M  V30 10 C 5.6612 2.7352 0.0 0
M  V30 END ATOM
M  V30 BEGIN BOND
M  V30 1 2 1 2
M  V30 2 1 2 3
M  V30 3 1 2 4
M  V30 4 1 3 5
M  V30 5 2 4 6
M  V30 6 1 5 7
M  V30 7 1 6 8
M  V30 8 1 7 9
M  V30 9 1 9 10
M  V30 END BOND
M  V30 END CTAB
M  END
>  <Molecule Name>
butyl crotonate

>  <Molecule Name 2>
butyl crotonate

>  <Database>
Essential Oil Database

>  <InChI>
InChI=1S/C8H14O2/c1-3-5-7-10-8(9)6-4-2/h4,6H,3,5,7H2,1-2H3/b6-4+

>  <InChI-Key>
GWCTUKHUBWMAMI-GQCTYLIASA-N

>  <Smiles>
CCCCOC(/C=C/C)=O

>  <Molecular Formula>
C8H14O2

$$$$
butyl nonanoate
Actelion Java MolfileCreator 2.0

  0  0  0  0  0  0              0 V3000
M  V30 BEGIN CTAB
M  V30 COUNTS 15 14 0 0 0
M  V30 BEGIN ATOM
M  V30 1 O 0.0 0.0 0.0 0
M  V30 2 C -0.1249 1.599 0.0 0
M  V30 3 O 1.0118 2.411 0.0 0
M  V30 4 C -1.5115 2.411 0.0 0
M  V30 5 C 2.1486 1.7489 0.0 0
M  V30 6 C -2.8982 1.7489 0.0 0
M  V30 7 C 3.2854 2.5609 0.0 0
M  V30 8 C -4.2848 2.5609 0.0 0
M  V30 9 C 4.4222 1.8988 0.0 0
M  V30 10 C -5.6714 1.8988 0.0 0
M  V30 11 C 5.559 2.7108 0.0 0
M  V30 12 C -7.0581 2.7108 0.0 0
M  V30 13 C -8.4447 2.0487 0.0 0
M  V30 14 C -9.8314 2.8607 0.0 0
M  V30 15 C -11.218 2.1986 0.0 0
M  V30 END ATOM
M  V30 BEGIN BOND
M  V30 1 2 1 2
M  V30 2 1 2 3
M  V30 3 1 2 4
M  V30 4 1 3 5
M  V30 5 1 4 6
M  V30 6 1 5 7
M  V30 7 1 6 8
M  V30 8 1 7 9
M  V30 9 1 8 10
M  V30 10 1 9 11
M  V30 11 1 10 12
M  V30 12 1 12 13
M  V30 13 1 13 14
M  V30 14 1 14 15
M  V30 END BOND
M  V30 END CTAB
M  END
>  <Molecule Name>
butyl nonanoate

>  <Molecule Name 2>
butyl nonanoate

>  <Database>
Essential Oil Database

>  <InChI>
InChI=1S/C13H26O2/c1-3-5-7-8-9-10-11-13(14)15-12-6-4-2/h3-12H2,1-2H3

>  <InChI-Key>
DOLFPCDDMUMIMR-UHFFFAOYSA-N

>  <Smiles>
CCCCCCCCC(OCCCC)=O

>  <Molecular Formula>
C13H26O2

$$$$
butyl propionate
Actelion Java MolfileCreator 2.0

  0  0  0  0  0  0              0 V3000
M  V30 BEGIN CTAB
M  V30 COUNTS 9 8 0 0 0
M  V30 BEGIN ATOM
M  V30 1 O 0.0 0.0 0.0 0
M  V30 2 C -0.1292 1.6548 0.0 0
M  V30 3 O 1.0472 2.4952 0.0 0
M  V30 4 C -1.5643 2.4952 0.0 0
M  V30 5 C 2.2237 1.797 0.0 0
M  V30 6 C -2.9994 1.797 0.0 0
M  V30 7 C 3.4002 2.6503 0.0 0
M  V30 8 C 4.5767 1.9522 0.0 0
M  V30 9 C 5.7532 2.7926 0.0 0
M  V30 END ATOM
M  V30 BEGIN BOND
M  V30 1 2 1 2
M  V30 2 1 2 3
M  V30 3 1 2 4
M  V30 4 1 3 5
M  V30 5 1 4 6
M  V30 6 1 5 7
M  V30 7 1 7 8
M  V30 8 1 8 9
M  V30 END BOND
M  V30 END CTAB
M  END
>  <Molecule Name>
butyl propionate

>  <Molecule Name 2>
butyl propionate

>  <Database>
Essential Oil Database

>  <InChI>
InChI=1S/C7H14O2/c1-3-5-6-9-7(8)4-2/h3-6H2,1-2H3

>  <InChI-Key>
BTMVHUNTONAYDX-UHFFFAOYSA-N

>  <Smiles>
CCCCOC(CC)=O

>  <Molecular Formula>
C7H14O2

$$$$
butyl tiglate
Actelion Java MolfileCreator 2.0

  0  0  0  0  0  0              0 V3000
M  V30 BEGIN CTAB
M  V30 COUNTS 11 10 0 0 0
M  V30 BEGIN ATOM
M  V30 1 O 0.0 0.0 0.0 0
M  V30 2 C -0.1267 1.622 0.0 0
M  V30 3 O 1.0264 2.4457 0.0 0
M  V30 4 C -1.5333 2.4457 0.0 0
M  V30 5 C 2.1796 1.7741 0.0 0
M  V30 6 C -1.6601 4.0678 0.0 0
M  V30 7 C -2.94 1.7741 0.0 0
M  V30 8 C 3.3328 2.5978 0.0 0
M  V30 9 C -3.0667 4.8915 0.0 0
M  V30 10 C 4.486 1.9135 0.0 0
M  V30 11 C 5.6392 2.7372 0.0 0
M  V30 END ATOM
M  V30 BEGIN BOND
M  V30 1 2 1 2
M  V30 2 1 2 3
M  V30 3 1 2 4
M  V30 4 1 3 5
M  V30 5 2 4 6
M  V30 6 1 4 7
M  V30 7 1 5 8
M  V30 8 1 6 9
M  V30 9 1 8 10
M  V30 10 1 10 11
M  V30 END BOND
M  V30 END CTAB
M  END
>  <Molecule Name>
butyl tiglate

>  <Molecule Name 2>
butyl tiglate

>  <Database>
Essential Oil Database

>  <InChI>
InChI=1S/C9H16O2/c1-4-6-7-11-9(10)8(3)5-2/h5H,4,6-7H2,1-3H3/b8-5+

>  <InChI-Key>
RBGFLIOXJWFKKX-VMPITWQZSA-N

>  <Smiles>
CCCCOC(/C(\C)=C/C)=O

>  <Molecular Formula>
C9H16O2

$$$$
(e)-cinnamyl butyrate
Actelion Java MolfileCreator 2.0

  0  0  0  0  0  0              0 V3000
M  V30 BEGIN CTAB
M  V30 COUNTS 15 15 0 0 0
M  V30 BEGIN ATOM
M  V30 1 O 0.0 0.0 0.0 0
M  V30 2 C -0.115 -1.4381 0.0 0
M  V30 3 O 1.1274 -2.0708 0.0 0
M  V30 4 C -1.5876 -2.0708 0.0 0
M  V30 5 C 2.3699 -1.1274 0.0 0
M  V30 6 C -3.0602 -1.1274 0.0 0
M  V30 7 C 3.6125 -1.7602 0.0 0
M  V30 8 C -4.5329 -1.7602 0.0 0
M  V30 9 C 4.855 -0.8168 0.0 0
M  V30 10 C 6.0975 -1.4611 0.0 0
M  V30 11 C 7.34 -0.5177 0.0 0
M  V30 12 C 5.9825 -2.8992 0.0 0
M  V30 13 C 8.5826 -1.1504 0.0 0
M  V30 14 C 7.225 -3.5319 0.0 0
M  V30 15 C 8.4675 -2.5885 0.0 0
M  V30 END ATOM
M  V30 BEGIN BOND
M  V30 1 2 1 2
M  V30 2 1 2 3
M  V30 3 1 2 4
M  V30 4 1 3 5
M  V30 5 1 4 6
M  V30 6 1 5 7
M  V30 7 1 6 8
M  V30 8 2 7 9
M  V30 9 1 9 10
M  V30 10 2 10 11
M  V30 11 1 10 12
M  V30 12 1 11 13
M  V30 13 2 12 14
M  V30 14 2 13 15
M  V30 15 1 14 15
M  V30 END BOND
M  V30 END CTAB
M  END
>  <Molecule Name>
(e)-cinnamyl butyrate

>  <Molecule Name 2>
(e)-cinnamyl butyrate

>  <Database>
Essential Oil Database

>  <InChI>
InChI=1S/C13H16O2/c1-2-7-13(14)15-11-6-10-12-8-4-3-5-9-12/h3-6,8-10H,2,7,11H2,1H3/b10-6+

>  <InChI-Key>
YZYPQKZWNXANRB-UXBLZVDNSA-N

>  <Smiles>
CCCC(OC/C=C/c1ccccc1)=O

>  <Molecular Formula>
C13H16O2

$$$$
(e)-cinnamyl hexanoate
Actelion Java MolfileCreator 2.0

  0  0  0  0  0  0              0 V3000
M  V30 BEGIN CTAB
M  V30 COUNTS 17 17 0 0 0
M  V30 BEGIN ATOM
M  V30 1 O 0.0 0.0 0.0 0
M  V30 2 C -0.114 -1.4253 0.0 0
M  V30 3 O 1.1174 -2.0297 0.0 0
M  V30 4 C -1.5735 -2.0297 0.0 0
M  V30 5 C 2.3489 -1.106 0.0 0
M  V30 6 C -3.0331 -1.106 0.0 0
M  V30 7 C 3.5804 -1.7104 0.0 0
M  V30 8 C -4.4927 -1.7104 0.0 0
M  V30 9 C 4.8119 -0.7867 0.0 0
M  V30 10 C -5.9522 -0.7867 0.0 0
M  V30 11 C 6.0435 -1.3911 0.0 0
M  V30 12 C -7.4118 -1.3911 0.0 0
M  V30 13 C 7.275 -0.4675 0.0 0
M  V30 14 C 5.9294 -2.8165 0.0 0
M  V30 15 C 8.5065 -1.0718 0.0 0
M  V30 16 C 7.1609 -3.4208 0.0 0
M  V30 17 C 8.3924 -2.4972 0.0 0
M  V30 END ATOM
M  V30 BEGIN BOND
M  V30 1 2 1 2
M  V30 2 1 2 3
M  V30 3 1 2 4
M  V30 4 1 3 5
M  V30 5 1 4 6
M  V30 6 1 5 7
M  V30 7 1 6 8
M  V30 8 2 7 9
M  V30 9 1 8 10
M  V30 10 1 9 11
M  V30 11 1 10 12
M  V30 12 2 11 13
M  V30 13 1 11 14
M  V30 14 1 13 15
M  V30 15 2 14 16
M  V30 16 2 15 17
M  V30 17 1 16 17
M  V30 END BOND
M  V30 END CTAB
M  END
>  <Molecule Name>
(e)-cinnamyl hexanoate

>  <Molecule Name 2>
(e)-cinnamyl hexanoate

>  <Database>
Essential Oil Database

>  <InChI>
InChI=1S/C15H20O2/c1-2-3-5-12-15(16)17-13-8-11-14-9-6-4-7-10-14/h4,6-11H,2-3,5,12-13H2,1H3/b11-8+

>  <InChI-Key>
BHXVENZBMFLCKE-DHZHZOJOSA-N

>  <Smiles>
CCCCCC(OC/C=C/c1ccccc1)=O

>  <Molecular Formula>
C15H20O2

$$$$
ethyl-3-hydroxybutyrate
Actelion Java MolfileCreator 2.0

  0  0  0  0  0  0              0 V3000
M  V30 BEGIN CTAB
M  V30 COUNTS 9 8 0 0 0
M  V30 BEGIN ATOM
M  V30 1 O 0.0 0.0 0.0 0
M  V30 2 C -0.1267 1.6219 0.0 0
M  V30 3 O 1.0263 2.4455 0.0 0
M  V30 4 C -1.5332 2.4455 0.0 0
M  V30 5 C 2.1794 1.7612 0.0 0
M  V30 6 C -2.9397 1.7612 0.0 0 CFG=1
M  V30 7 C 3.3325 2.5849 0.0 0
M  V30 8 O -3.0664 0.3928 0.0 0
M  V30 9 C -4.3462 2.5849 0.0 0
M  V30 END ATOM
M  V30 BEGIN BOND
M  V30 1 2 1 2
M  V30 2 1 2 3
M  V30 3 1 2 4
M  V30 4 1 3 5
M  V30 5 1 4 6
M  V30 6 1 5 7
M  V30 7 1 6 8 CFG=1
M  V30 8 1 6 9
M  V30 END BOND
M  V30 BEGIN COLLECTION
M  V30 MDLV30/STERAC1 ATOMS=(1 6)
M  V30 END COLLECTION
M  V30 END CTAB
M  END
>  <Molecule Name>
ethyl-3-hydroxybutyrate

>  <Molecule Name 2>
ethyl-3-hydroxybutyrate

>  <Database>
Essential Oil Database

>  <InChI>
InChI=1S/C6H12O3/c1-3-9-6(8)4-5(2)7/h5,7H,3-4H2,1-2H3/t5-/m0/s1

>  <InChI-Key>
OMSUIQOIVADKIM-YFKPBYRVSA-N

>  <Smiles>
CCOC(CC(C)O)=O

>  <Molecular Formula>
C6H12O3

$$$$
ethyl (e)-2-hexenoate
Actelion Java MolfileCreator 2.0

  0  0  0  0  0  0              0 V3000
M  V30 BEGIN CTAB
M  V30 COUNTS 10 9 0 0 0
M  V30 BEGIN ATOM
M  V30 1 O 0.0 0.0 0.0 0
M  V30 2 C -1.5695 0.1226 0.0 0
M  V30 3 O -2.3666 1.4837 0.0 0
M  V30 4 C -2.3666 -0.9932 0.0 0
M  V30 5 C -1.7167 2.8448 0.0 0
M  V30 6 C -3.9362 -0.8706 0.0 0
M  V30 7 C -2.5137 4.2059 0.0 0
M  V30 8 C -4.7332 -1.9865 0.0 0
M  V30 9 C -6.3028 -1.8638 0.0 0
M  V30 10 C -7.0999 -2.9797 0.0 0
M  V30 END ATOM
M  V30 BEGIN BOND
M  V30 1 2 1 2
M  V30 2 1 2 3
M  V30 3 1 2 4
M  V30 4 1 3 5
M  V30 5 2 4 6
M  V30 6 1 5 7
M  V30 7 1 6 8
M  V30 8 1 8 9
M  V30 9 1 9 10
M  V30 END BOND
M  V30 END CTAB
M  END
>  <Molecule Name>
ethyl (e)-2-hexenoate

>  <Molecule Name 2>
ethyl (e)-2-hexenoate

>  <Database>
Essential Oil Database

>  <InChI>
InChI=1S/C8H14O2/c1-3-5-6-7-8(9)10-4-2/h6-7H,3-5H2,1-2H3/b7-6+

>  <InChI-Key>
SJRXWMQZUAOMRJ-VOTSOKGWSA-N

>  <Smiles>
CCC/C=C/C(OCC)=O

>  <Molecular Formula>
C8H14O2

$$$$
isobornyl acetate
Actelion Java MolfileCreator 2.0

  0  0  0  0  0  0              0 V3000
M  V30 BEGIN CTAB
M  V30 COUNTS 14 15 0 0 0
M  V30 BEGIN ATOM
M  V30 1 O 0.0 0.0 0.0 0
M  V30 2 C 1.1565 0.8134 0.0 0
M  V30 3 O 2.3131 0.1398 0.0 0
M  V30 4 C 1.0294 2.4402 0.0 0
M  V30 5 C 3.4697 0.9659 0.0 0
M  V30 6 C 4.6262 0.2923 0.0 0 CFG=1
M  V30 7 C 3.3426 2.5927 0.0 0
M  V30 8 C 4.0924 1.9191 0.0 0
M  V30 9 C 5.7828 1.1184 0.0 0
M  V30 10 C 4.4991 -1.0803 0.0 0
M  V30 11 C 4.4991 3.4188 0.0 0 CFG=1
M  V30 12 C 2.5292 2.5037 0.0 0
M  V30 13 C 2.5292 1.5886 0.0 0
M  V30 14 C 5.6557 2.7452 0.0 0
M  V30 END ATOM
M  V30 BEGIN BOND
M  V30 1 2 1 2
M  V30 2 1 2 3
M  V30 3 1 2 4
M  V30 4 1 3 5
M  V30 5 1 5 6
M  V30 6 1 5 7
M  V30 7 1 6 8
M  V30 8 1 6 9
M  V30 9 1 6 10 CFG=3
M  V30 10 1 11 7 CFG=3
M  V30 11 1 8 12
M  V30 12 1 8 13
M  V30 13 1 9 14
M  V30 14 1 8 11
M  V30 15 1 11 14
M  V30 END BOND
M  V30 BEGIN COLLECTION
M  V30 MDLV30/STERAC1 ATOMS=(2 6 11)
M  V30 END COLLECTION
M  V30 END CTAB
M  END
>  <Molecule Name>
isobornyl acetate

>  <Molecule Name 2>
isobornyl acetate

>  <Database>
Essential Oil Database

>  <InChI>
InChI=1S/C12H20O2/c1-8(13)14-10-7-9-5-6-12(10,4)11(9,2)3/h9-10H,5-7H2,1-4H3/t9-,10?,12-/m0/s1

>  <InChI-Key>
KGEKLUUHTZCSIP-VULFSTHESA-N

>  <Smiles>
CC(C)([C@@H](CC1)C2)[C@]1(C)C2OC(C)=O

>  <Molecular Formula>
C12H20O2

$$$$
octyl benzoate
Actelion Java MolfileCreator 2.0

  0  0  0  0  0  0              0 V3000
M  V30 BEGIN CTAB
M  V30 COUNTS 17 17 0 0 0
M  V30 BEGIN ATOM
M  V30 1 O 0.0 0.0 0.0 0
M  V30 2 C -0.1276 1.634 0.0 0
M  V30 3 O 1.034 2.4638 0.0 0
M  V30 4 C -1.5447 2.4638 0.0 0
M  V30 5 C 2.1957 1.7872 0.0 0
M  V30 6 C -2.9617 1.7872 0.0 0
M  V30 7 C -1.6723 4.0979 0.0 0
M  V30 8 C 3.3575 2.617 0.0 0
M  V30 9 C -4.3788 2.617 0.0 0
M  V30 10 C -3.0894 4.9277 0.0 0
M  V30 11 C 4.5192 1.9404 0.0 0
M  V30 12 C -4.5064 4.2511 0.0 0
M  V30 13 C 5.6809 2.7702 0.0 0
M  V30 14 C 6.8426 2.0936 0.0 0
M  V30 15 C 8.0044 2.9234 0.0 0
M  V30 16 C 9.1661 2.2468 0.0 0
M  V30 17 C 10.3278 3.0766 0.0 0
M  V30 END ATOM
M  V30 BEGIN BOND
M  V30 1 2 1 2
M  V30 2 1 2 3
M  V30 3 1 2 4
M  V30 4 1 3 5
M  V30 5 2 4 6
M  V30 6 1 4 7
M  V30 7 1 5 8
M  V30 8 1 6 9
M  V30 9 2 7 10
M  V30 10 1 8 11
M  V30 11 2 9 12
M  V30 12 1 11 13
M  V30 13 1 13 14
M  V30 14 1 14 15
M  V30 15 1 15 16
M  V30 16 1 16 17
M  V30 17 1 10 12
M  V30 END BOND
M  V30 END CTAB
M  END
>  <Molecule Name>
octyl benzoate

>  <Molecule Name 2>
octyl benzoate

>  <Database>
Essential Oil Database

>  <InChI>
InChI=1S/C15H22O2/c1-2-3-4-5-6-10-13-17-15(16)14-11-8-7-9-12-14/h7-9,11-12H,2-6,10,13H2,1H3

>  <InChI-Key>
VECVSKFWRQYTAL-UHFFFAOYSA-N

>  <Smiles>
CCCCCCCCOC(c1ccccc1)=O

>  <Molecular Formula>
C15H22O2

$$$$
propyl benzoate
Actelion Java MolfileCreator 2.0

  0  0  0  0  0  0              0 V3000
M  V30 BEGIN CTAB
M  V30 COUNTS 12 12 0 0 0
M  V30 BEGIN ATOM
M  V30 1 O 0.0 0.0 0.0 0
M  V30 2 C -0.1116 -1.3952 0.0 0
M  V30 3 O 1.0938 -2.0203 0.0 0
M  V30 4 C -1.5403 -2.0203 0.0 0
M  V30 5 C 2.2993 -1.105 0.0 0
M  V30 6 C -1.6519 -3.4155 0.0 0
M  V30 7 C -2.969 -1.105 0.0 0
M  V30 8 C 3.5048 -1.7189 0.0 0
M  V30 9 C -3.0806 -4.0294 0.0 0
M  V30 10 C -4.3977 -1.7189 0.0 0
M  V30 11 C 4.7103 -0.8036 0.0 0
M  V30 12 C -4.5094 -3.1141 0.0 0
M  V30 END ATOM
M  V30 BEGIN BOND
M  V30 1 2 1 2
M  V30 2 1 2 3
M  V30 3 1 2 4
M  V30 4 1 3 5
M  V30 5 2 4 6
M  V30 6 1 4 7
M  V30 7 1 5 8
M  V30 8 1 6 9
M  V30 9 2 7 10
M  V30 10 1 8 11
M  V30 11 2 9 12
M  V30 12 1 10 12
M  V30 END BOND
M  V30 END CTAB
M  END
>  <Molecule Name>
propyl benzoate

>  <Molecule Name 2>
propyl benzoate

>  <Database>
Essential Oil Database

>  <InChI>
InChI=1S/C10H12O2/c1-2-8-12-10(11)9-6-4-3-5-7-9/h3-7H,2,8H2,1H3

>  <InChI-Key>
UDEWPOVQBGFNGE-UHFFFAOYSA-N

>  <Smiles>
CCCOC(c1ccccc1)=O

>  <Molecular Formula>
C10H12O2

$$$$
zingiberene
Actelion Java MolfileCreator 2.0

  0  0  0  0  0  0              0 V3000
M  V30 BEGIN CTAB
M  V30 COUNTS 15 15 0 0 0
M  V30 BEGIN ATOM
M  V30 1 C 0.0 0.0 0.0 0
M  V30 2 C -1.3582 0.7831 0.0 0
M  V30 3 C 1.1135 0.7831 0.0 0
M  V30 4 C -0.1223 -1.3215 0.0 0
M  V30 5 C -1.4806 2.3494 0.0 0
M  V30 6 C 0.9911 2.3494 0.0 0
M  V30 7 C -0.3671 3.1326 0.0 0 CFG=1
M  V30 8 C -0.4894 4.6989 0.0 0 CFG=1
M  V30 9 C -1.8477 5.4942 0.0 0
M  V30 10 C 0.624 5.4942 0.0 0
M  V30 11 C -1.9701 7.0605 0.0 0
M  V30 12 C -3.3283 7.8559 0.0 0
M  V30 13 C -3.4507 9.4222 0.0 0
M  V30 14 C -4.809 10.2176 0.0 0
M  V30 15 C -2.3372 10.2176 0.0 0
M  V30 END ATOM
M  V30 BEGIN BOND
M  V30 1 1 1 2
M  V30 2 2 1 3
M  V30 3 1 1 4
M  V30 4 2 2 5
M  V30 5 1 3 6
M  V30 6 1 7 5 CFG=3
M  V30 7 1 7 8
M  V30 8 1 8 9
M  V30 9 1 8 10 CFG=1
M  V30 10 1 9 11
M  V30 11 1 11 12
M  V30 12 2 12 13
M  V30 13 1 13 14
M  V30 14 1 13 15
M  V30 15 1 6 7
M  V30 END BOND
M  V30 BEGIN COLLECTION
M  V30 MDLV30/STERAC1 ATOMS=(2 7 8)
M  V30 END COLLECTION
M  V30 END CTAB
M  END
>  <Molecule Name>
zingiberene

>  <Molecule Name 2>
zingiberene

>  <Database>
Essential Oil Database

>  <InChI>
InChI=1S/C15H24/c1-12(2)6-5-7-14(4)15-10-8-13(3)9-11-15/h6,8-10,14-15H,5,7,11H2,1-4H3/t14-,15+/m1/s1

>  <InChI-Key>
KKOXKGNSUHTUBV-CABCVRRESA-N

>  <Smiles>
C[C@H](CCC=C(C)C)[C@H]1C=CC(C)=CC1

>  <Molecular Formula>
C15H24

$$$$
3-methylnonane
Actelion Java MolfileCreator 2.0

  0  0  0  0  0  0              0 V3000
M  V30 BEGIN CTAB
M  V30 COUNTS 10 9 0 0 0
M  V30 BEGIN ATOM
M  V30 1 C 0.0 0.0 0.0 0 CFG=2
M  V30 2 C 1.1887 -0.7054 0.0 0
M  V30 3 C -1.45 -0.7054 0.0 0
M  V30 4 C -0.1306 1.6721 0.0 0
M  V30 5 C 2.3775 0.1437 0.0 0
M  V30 6 C -2.9001 0.1437 0.0 0
M  V30 7 C 3.5663 -0.5617 0.0 0
M  V30 8 C 4.7551 0.2874 0.0 0
M  V30 9 C 5.9439 -0.418 0.0 0
M  V30 10 C 7.1327 0.4311 0.0 0
M  V30 END ATOM
M  V30 BEGIN BOND
M  V30 1 1 1 2
M  V30 2 1 1 3
M  V30 3 1 1 4 CFG=3
M  V30 4 1 2 5
M  V30 5 1 3 6
M  V30 6 1 5 7
M  V30 7 1 7 8
M  V30 8 1 8 9
M  V30 9 1 9 10
M  V30 END BOND
M  V30 BEGIN COLLECTION
M  V30 MDLV30/STERAC1 ATOMS=(1 1)
M  V30 END COLLECTION
M  V30 END CTAB
M  END
>  <Molecule Name>
3-methylnonane

>  <Molecule Name 2>
3-methylnonane

>  <Database>
Essential Oil Database

>  <InChI>
InChI=1S/C10H22/c1-4-6-7-8-9-10(3)5-2/h10H,4-9H2,1-3H3/t10-/m0/s1

>  <InChI-Key>
PLZDDPSCZHRBOY-JTQLQIEISA-N

>  <Smiles>
CCCCCCC(C)CC

>  <Molecular Formula>
C10H22

$$$$
(2e)-undecenol
Actelion Java MolfileCreator 2.0

  0  0  0  0  0  0              0 V3000
M  V30 BEGIN CTAB
M  V30 COUNTS 12 11 0 0 0
M  V30 BEGIN ATOM
M  V30 1 O 0.0 0.0 0.0 0
M  V30 2 C -0.1356 1.7359 0.0 0
M  V30 3 C 1.0985 2.6174 0.0 0
M  V30 4 C 2.3326 1.8851 0.0 0
M  V30 5 C 3.5668 2.7666 0.0 0
M  V30 6 C 4.801 2.0343 0.0 0
M  V30 7 C 6.0351 2.9158 0.0 0
M  V30 8 C 7.2693 2.1835 0.0 0
M  V30 9 C 8.5034 3.065 0.0 0
M  V30 10 C 9.7376 2.3326 0.0 0
M  V30 11 C 10.9717 3.2142 0.0 0
M  V30 12 C 12.2059 2.4818 0.0 0
M  V30 END ATOM
M  V30 BEGIN BOND
M  V30 1 1 1 2
M  V30 2 1 2 3
M  V30 3 2 3 4
M  V30 4 1 4 5
M  V30 5 1 5 6
M  V30 6 1 6 7
M  V30 7 1 7 8
M  V30 8 1 8 9
M  V30 9 1 9 10
M  V30 10 1 10 11
M  V30 11 1 11 12
M  V30 END BOND
M  V30 END CTAB
M  END
>  <Molecule Name>
(2e)-undecenol

>  <Molecule Name 2>
(2e)-undecenol

>  <Database>
Essential Oil Database

>  <InChI>
InChI=1S/C11H22O/c1-2-3-4-5-6-7-8-9-10-11-12/h9-10,12H,2-8,11H2,1H3/b10-9+

>  <InChI-Key>
SKBIQKQBLQHOSU-MDZDMXLPSA-N

>  <Smiles>
CCCCCCCC/C=C/CO

>  <Molecular Formula>
C11H22O

$$$$
10-undecenol acetate
Actelion Java MolfileCreator 2.0

  0  0  0  0  0  0              0 V3000
M  V30 BEGIN CTAB
M  V30 COUNTS 15 14 0 0 0
M  V30 BEGIN ATOM
M  V30 1 O 0.0 0.0 0.0 0
M  V30 2 C 1.2355 0.8825 0.0 0
M  V30 3 O 2.471 0.1493 0.0 0
M  V30 4 C 1.0997 2.6204 0.0 0
M  V30 5 C 3.7066 1.0318 0.0 0
M  V30 6 C 4.9421 0.2987 0.0 0
M  V30 7 C 6.1777 1.1812 0.0 0
M  V30 8 C 7.4132 0.448 0.0 0
M  V30 9 C 8.6488 1.3305 0.0 0
M  V30 10 C 9.8843 0.5974 0.0 0
M  V30 11 C 11.1199 1.4799 0.0 0
M  V30 12 C 12.3554 0.7467 0.0 0
M  V30 13 C 13.591 1.6292 0.0 0
M  V30 14 C 14.8265 0.8961 0.0 0
M  V30 15 C 16.0621 1.7922 0.0 0
M  V30 END ATOM
M  V30 BEGIN BOND
M  V30 1 2 1 2
M  V30 2 1 2 3
M  V30 3 1 2 4
M  V30 4 1 3 5
M  V30 5 1 5 6
M  V30 6 1 6 7
M  V30 7 1 7 8
M  V30 8 1 8 9
M  V30 9 1 9 10
M  V30 10 1 10 11
M  V30 11 1 11 12
M  V30 12 1 12 13
M  V30 13 1 13 14
M  V30 14 2 14 15
M  V30 END BOND
M  V30 END CTAB
M  END
>  <Molecule Name>
10-undecenol acetate

>  <Molecule Name 2>
10-undecenol acetate

>  <Database>
Essential Oil Database

>  <InChI>
InChI=1S/C13H24O2/c1-3-4-5-6-7-8-9-10-11-12-15-13(2)14/h3H,1,4-12H2,2H3

>  <InChI-Key>
VCVAXEYHJAFRGM-UHFFFAOYSA-N

>  <Smiles>
CC(OCCCCCCCCCC=C)=O

>  <Molecular Formula>
C13H24O2

$$$$
alpha-aromadendrene
Actelion Java MolfileCreator 2.0

  0  0  0  0  0  0              0 V3000
M  V30 BEGIN CTAB
M  V30 COUNTS 15 17 0 0 0
M  V30 BEGIN ATOM
M  V30 1 C 0.0 0.0 0.0 0
M  V30 2 C 0.9349 1.1686 0.0 0
M  V30 3 C 0.4025 -1.3114 0.0 0 CFG=2
M  V30 4 C -1.5711 0.6881 0.0 0
M  V30 5 C -0.5064 -2.4541 0.0 0
M  V30 6 C 1.7529 -1.5971 0.0 0
M  V30 7 C -2.9865 -0.0259 0.0 0
M  V30 8 C 0.2986 -3.4799 0.0 0 CFG=2
M  V30 9 C -2.1684 -2.4931 0.0 0
M  V30 10 C 1.7269 -2.9995 0.0 0
M  V30 11 C -3.3111 -1.4153 0.0 0
M  V30 12 C -0.2467 -4.8303 0.0 0
M  V30 13 C -3.7786 -2.7787 0.0 0
M  V30 14 C -5.4147 -2.9216 0.0 0
M  V30 15 C -4.2071 -4.1551 0.0 0
M  V30 END ATOM
M  V30 BEGIN BOND
M  V30 1 2 1 2
M  V30 2 1 3 1 CFG=1
M  V30 3 1 1 4
M  V30 4 1 3 5
M  V30 5 1 3 6
M  V30 6 1 4 7
M  V30 7 1 5 8
M  V30 8 1 5 9
M  V30 9 1 6 10
M  V30 10 1 7 11
M  V30 11 1 8 12 CFG=3
M  V30 12 1 9 13
M  V30 13 1 13 14
M  V30 14 1 13 15
M  V30 15 1 8 10
M  V30 16 1 9 11
M  V30 17 1 11 13
M  V30 END BOND
M  V30 BEGIN COLLECTION
M  V30 MDLV30/STERAC1 ATOMS=(2 3 8)
M  V30 END COLLECTION
M  V30 END CTAB
M  END
>  <Molecule Name>
alpha-aromadendrene

>  <Molecule Name 2>
alpha-aromadendrene

>  <Database>
Essential Oil Database

>  <InChI>
InChI=1S/C15H24/c1-9-6-8-12-14(15(12,3)4)13-10(2)5-7-11(9)13/h10-14H,1,5-8H2,2-4H3/t10-,11+,12?,13?,14?/m0/s1

>  <InChI-Key>
ITYNGVSTWVVPIC-OHGHAHBXSA-N

>  <Smiles>
C[C@@H](CC1)C(C2C(C)(C)C2CC2)[C@H]1C2=C

>  <Molecular Formula>
C15H24

$$$$
(e)-2-nonen-1-ol
Actelion Java MolfileCreator 2.0

  0  0  0  0  0  0              0 V3000
M  V30 BEGIN CTAB
M  V30 COUNTS 10 9 0 0 0
M  V30 BEGIN ATOM
M  V30 1 O 0.0 0.0 0.0 0
M  V30 2 C -0.1351 1.7297 0.0 0
M  V30 3 C 1.0946 2.6081 0.0 0
M  V30 4 C 2.3243 1.8784 0.0 0
M  V30 5 C 3.5541 2.7568 0.0 0
M  V30 6 C 4.7839 2.027 0.0 0
M  V30 7 C 6.0136 2.9054 0.0 0
M  V30 8 C 7.2434 2.1757 0.0 0
M  V30 9 C 8.4731 3.0541 0.0 0
M  V30 10 C 9.7029 2.3243 0.0 0
M  V30 END ATOM
M  V30 BEGIN BOND
M  V30 1 1 1 2
M  V30 2 1 2 3
M  V30 3 2 3 4
M  V30 4 1 4 5
M  V30 5 1 5 6
M  V30 6 1 6 7
M  V30 7 1 7 8
M  V30 8 1 8 9
M  V30 9 1 9 10
M  V30 END BOND
M  V30 END CTAB
M  END
>  <Molecule Name>
(e)-2-nonen-1-ol

>  <Molecule Name 2>
(e)-2-nonen-1-ol

>  <Database>
Essential Oil Database

>  <InChI>
InChI=1S/C9H18O/c1-2-3-4-5-6-7-8-9-10/h7-8,10H,2-6,9H2,1H3/b8-7+

>  <InChI-Key>
NSSALFVIQPAIQK-BQYQJAHWSA-N

>  <Smiles>
CCCCCC/C=C/CO

>  <Molecular Formula>
C9H18O

$$$$
sibirene
Actelion Java MolfileCreator 2.0

  0  0  0  0  0  0              0 V3000
M  V30 BEGIN CTAB
M  V30 COUNTS 15 16 0 0 0
M  V30 BEGIN ATOM
M  V30 1 C 0.0 0.0 0.0 0
M  V30 2 C -0.126 1.6138 0.0 0
M  V30 3 C -1.3994 -0.6682 0.0 0
M  V30 4 C 1.1473 -0.6682 0.0 0
M  V30 5 C -2.7989 0.1512 0.0 0
M  V30 6 C -1.5255 -2.0299 0.0 0
M  V30 7 C 1.0212 -2.0299 0.0 0
M  V30 8 C -4.1984 -0.5169 0.0 0
M  V30 9 C -2.925 -2.7107 0.0 0
M  V30 10 C -0.3782 -2.7107 0.0 0
M  V30 11 C -1.6516 -3.3915 0.0 0
M  V30 12 C -5.5979 0.2899 0.0 0
M  V30 13 C -4.3245 -1.8786 0.0 0
M  V30 14 C -6.9974 -0.3782 0.0 0
M  V30 15 C -5.724 1.9038 0.0 0
M  V30 END ATOM
M  V30 BEGIN BOND
M  V30 1 2 1 2
M  V30 2 1 1 3
M  V30 3 1 1 4
M  V30 4 1 3 5
M  V30 5 1 3 6
M  V30 6 1 4 7
M  V30 7 2 5 8
M  V30 8 1 6 9
M  V30 9 1 6 10
M  V30 10 1 6 11
M  V30 11 1 8 12
M  V30 12 1 8 13
M  V30 13 1 12 14
M  V30 14 1 12 15
M  V30 15 1 7 10
M  V30 16 1 9 13
M  V30 END BOND
M  V30 END CTAB
M  END
>  <Molecule Name>
sibirene

>  <Molecule Name 2>
sibirene

>  <Database>
Essential Oil Database

>  <InChI>
InChI=1S/C15H24/c1-11(2)13-7-9-15(4)8-5-6-12(3)14(15)10-13/h10-11,14H,3,5-9H2,1-2,4H3

>  <InChI-Key>
ALUIZDJKPCNAGJ-UHFFFAOYSA-N

>  <Smiles>
CC(C)C(CCC1(C)CCC2)=CC1C2=C

>  <Molecular Formula>
C15H24

$$$$
1,8-octanediol
Actelion Java MolfileCreator 2.0

  0  0  0  0  0  0              0 V3000
M  V30 BEGIN CTAB
M  V30 COUNTS 10 9 0 0 0
M  V30 BEGIN ATOM
M  V30 1 O 0.0 0.0 0.0 0
M  V30 2 C 1.2502 0.9128 0.0 0
M  V30 3 C 2.5004 0.1984 0.0 0
M  V30 4 C 3.7506 1.1113 0.0 0
M  V30 5 C 5.0009 0.3968 0.0 0
M  V30 6 C 6.2511 1.3097 0.0 0
M  V30 7 C 7.5013 0.5953 0.0 0
M  V30 8 C 8.7516 1.5082 0.0 0
M  V30 9 C 10.0018 0.7937 0.0 0
M  V30 10 O 11.252 1.7066 0.0 0
M  V30 END ATOM
M  V30 BEGIN BOND
M  V30 1 1 1 2
M  V30 2 1 2 3
M  V30 3 1 3 4
M  V30 4 1 4 5
M  V30 5 1 5 6
M  V30 6 1 6 7
M  V30 7 1 7 8
M  V30 8 1 8 9
M  V30 9 1 9 10
M  V30 END BOND
M  V30 END CTAB
M  END
>  <Molecule Name>
1,8-octanediol

>  <Molecule Name 2>
1,8-octanediol

>  <Database>
Essential Oil Database

>  <InChI>
InChI=1S/C8H18O2/c9-7-5-3-1-2-4-6-8-10/h9-10H,1-8H2

>  <InChI-Key>
OEIJHBUUFURJLI-UHFFFAOYSA-N

>  <Smiles>
OCCCCCCCCO

>  <Molecular Formula>
C8H18O2

$$$$
(2z,6e)-farnesol
Actelion Java MolfileCreator 2.0

  0  0  0  0  0  0              0 V3000
M  V30 BEGIN CTAB
M  V30 COUNTS 16 15 0 0 0
M  V30 BEGIN ATOM
M  V30 1 O 0.0 0.0 0.0 0
M  V30 2 C -1.5618 0.122 0.0 0
M  V30 3 C -2.3549 1.4763 0.0 0
M  V30 4 C -3.9167 1.5984 0.0 0
M  V30 5 C -4.7098 0.488 0.0 0
M  V30 6 C -4.7098 2.9527 0.0 0
M  V30 7 C -6.2716 0.61 0.0 0
M  V30 8 C -7.0647 -0.5002 0.0 0
M  V30 9 C -8.6265 -0.3782 0.0 0
M  V30 10 C -9.4196 -1.4885 0.0 0
M  V30 11 C -9.4196 0.9761 0.0 0
M  V30 12 C -10.9814 -1.3665 0.0 0
M  V30 13 C -11.7745 -2.4769 0.0 0
M  V30 14 C -13.3363 -2.3549 0.0 0
M  V30 15 C -14.1294 -3.4652 0.0 0
M  V30 16 C -14.1294 -1.0005 0.0 0
M  V30 END ATOM
M  V30 BEGIN BOND
M  V30 1 1 1 2
M  V30 2 1 2 3
M  V30 3 2 3 4
M  V30 4 1 4 5
M  V30 5 1 4 6
M  V30 6 1 5 7
M  V30 7 1 7 8
M  V30 8 2 8 9
M  V30 9 1 9 10
M  V30 10 1 9 11
M  V30 11 1 10 12
M  V30 12 1 12 13
M  V30 13 2 13 14
M  V30 14 1 14 15
M  V30 15 1 14 16
M  V30 END BOND
M  V30 END CTAB
M  END
>  <Molecule Name>
(2z,6e)-farnesol

>  <Molecule Name 2>
(2z,6e)-farnesol

>  <Database>
Essential Oil Database

>  <InChI>
InChI=1S/C15H26O/c1-13(2)7-5-8-14(3)9-6-10-15(4)11-12-16/h7,9,11,16H,5-6,8,10,12H2,1-4H3/b14-9+,15-11-

>  <InChI-Key>
CRDAMVZIKSXKFV-PVMFERMNSA-N

>  <Smiles>
CC(C)=CCC/C(\C)=C/CC/C(\C)=C\CO

>  <Molecular Formula>
C15H26O

$$$$
dodecanal
Actelion Java MolfileCreator 2.0

  0  0  0  0  0  0              0 V3000
M  V30 BEGIN CTAB
M  V30 COUNTS 13 12 0 0 0
M  V30 BEGIN ATOM
M  V30 1 O 0.0 0.0 0.0 0
M  V30 2 C 1.2552 0.9165 0.0 0
M  V30 3 C 2.5105 0.1992 0.0 0
M  V30 4 C 3.7657 1.1157 0.0 0
M  V30 5 C 5.021 0.3984 0.0 0
M  V30 6 C 6.2762 1.315 0.0 0
M  V30 7 C 7.5315 0.5977 0.0 0
M  V30 8 C 8.7868 1.5142 0.0 0
M  V30 9 C 10.042 0.7969 0.0 0
M  V30 10 C 11.2973 1.7135 0.0 0
M  V30 11 C 12.5525 0.9962 0.0 0
M  V30 12 C 13.8078 1.9127 0.0 0
M  V30 13 C 15.063 1.1954 0.0 0
M  V30 END ATOM
M  V30 BEGIN BOND
M  V30 1 2 1 2
M  V30 2 1 2 3
M  V30 3 1 3 4
M  V30 4 1 4 5
M  V30 5 1 5 6
M  V30 6 1 6 7
M  V30 7 1 7 8
M  V30 8 1 8 9
M  V30 9 1 9 10
M  V30 10 1 10 11
M  V30 11 1 11 12
M  V30 12 1 12 13
M  V30 END BOND
M  V30 END CTAB
M  END
>  <Molecule Name>
dodecanal

>  <Molecule Name 2>
dodecanal

>  <Database>
Essential Oil Database

>  <InChI>
InChI=1S/C12H24O/c1-2-3-4-5-6-7-8-9-10-11-12-13/h12H,2-11H2,1H3

>  <InChI-Key>
HFJRKMMYBMWEAD-UHFFFAOYSA-N

>  <Smiles>
CCCCCCCCCCCC=O

>  <Molecular Formula>
C12H24O

$$$$
(3z)-hexenyl-3-methylbutanoate
Actelion Java MolfileCreator 2.0

  0  0  0  0  0  0              0 V3000
M  V30 BEGIN CTAB
M  V30 COUNTS 13 12 0 0 0
M  V30 BEGIN ATOM
M  V30 1 O 0.0 0.0 0.0 0
M  V30 2 C -0.1272 -1.3738 0.0 0
M  V30 3 O 1.0304 -2.0481 0.0 0
M  V30 4 C -1.5392 -2.0481 0.0 0
M  V30 5 C 2.188 -1.2212 0.0 0
M  V30 6 C -2.9513 -1.2212 0.0 0
M  V30 7 C 3.3456 -1.8954 0.0 0
M  V30 8 C -4.3633 -1.8954 0.0 0
M  V30 9 C -3.0785 0.407 0.0 0
M  V30 10 C 4.5032 -1.0685 0.0 0
M  V30 11 C 4.376 0.5597 0.0 0
M  V30 12 C 5.5337 1.3993 0.0 0
M  V30 13 C 5.4064 3.0276 0.0 0
M  V30 END ATOM
M  V30 BEGIN BOND
M  V30 1 2 1 2
M  V30 2 1 2 3
M  V30 3 1 2 4
M  V30 4 1 3 5
M  V30 5 1 4 6
M  V30 6 2 5 7
M  V30 7 1 6 8
M  V30 8 1 6 9
M  V30 9 1 7 10
M  V30 10 1 10 11
M  V30 11 1 11 12
M  V30 12 1 12 13
M  V30 END BOND
M  V30 END CTAB
M  END
>  <Molecule Name>
(3z)-hexenyl-3-methylbutanoate

>  <Molecule Name 2>
(3z)-hexenyl-3-methylbutanoate

>  <Database>
Essential Oil Database

>  <InChI>
InChI=1S/C11H20O2/c1-4-5-6-7-8-13-11(12)9-10(2)3/h7-8,10H,4-6,9H2,1-3H3/b8-7+

>  <InChI-Key>
VDCZNJPCWOXBSP-BQYQJAHWSA-N

>  <Smiles>
CCCC/C=C/OC(CC(C)C)=O

>  <Molecular Formula>
C11H20O2

$$$$
(2z)-nonenol
Actelion Java MolfileCreator 2.0

  0  0  0  0  0  0              0 V3000
M  V30 BEGIN CTAB
M  V30 COUNTS 10 9 0 0 0
M  V30 BEGIN ATOM
M  V30 1 O 0.0 0.0 0.0 0
M  V30 2 C 1.2834 -0.6358 0.0 0
M  V30 3 C 1.1656 -2.1194 0.0 0
M  V30 4 C 2.4491 -2.7552 0.0 0
M  V30 5 C 3.7325 -1.7779 0.0 0
M  V30 6 C 5.016 -2.4138 0.0 0
M  V30 7 C 6.2994 -1.4365 0.0 0
M  V30 8 C 7.5829 -2.0959 0.0 0
M  V30 9 C 8.8663 -1.1185 0.0 0
M  V30 10 C 10.1498 -1.7544 0.0 0
M  V30 END ATOM
M  V30 BEGIN BOND
M  V30 1 1 1 2
M  V30 2 1 2 3
M  V30 3 2 3 4
M  V30 4 1 4 5
M  V30 5 1 5 6
M  V30 6 1 6 7
M  V30 7 1 7 8
M  V30 8 1 8 9
M  V30 9 1 9 10
M  V30 END BOND
M  V30 END CTAB
M  END
>  <Molecule Name>
(2z)-nonenol

>  <Molecule Name 2>
(2z)-nonenol

>  <Database>
Essential Oil Database

>  <InChI>
InChI=1S/C9H18O/c1-2-3-4-5-6-7-8-9-10/h7-8,10H,2-6,9H2,1H3/b8-7-

>  <InChI-Key>
NSSALFVIQPAIQK-FPLPWBNLSA-N

>  <Smiles>
CCCCCC/C=C\CO

>  <Molecular Formula>
C9H18O

$$$$
(3z)-hexenyl-2-methylbutanoate
Actelion Java MolfileCreator 2.0

  0  0  0  0  0  0              0 V3000
M  V30 BEGIN CTAB
M  V30 COUNTS 13 12 0 0 0
M  V30 BEGIN ATOM
M  V30 1 O 0.0 0.0 0.0 0
M  V30 2 C -0.129 -1.3935 0.0 0
M  V30 3 O 1.0451 -2.0773 0.0 0
M  V30 4 C -1.5612 -2.0773 0.0 0 CFG=2
M  V30 5 C 2.2192 -1.2386 0.0 0
M  V30 6 C -2.9934 -1.2386 0.0 0
M  V30 7 C -1.6902 -3.4708 0.0 0
M  V30 8 C 3.3934 -1.9225 0.0 0
M  V30 9 C -4.4256 -1.9225 0.0 0
M  V30 10 C 4.5676 -1.0838 0.0 0
M  V30 11 C 4.4385 0.5677 0.0 0
M  V30 12 C 5.6127 1.4193 0.0 0
M  V30 13 C 5.4837 3.0708 0.0 0
M  V30 END ATOM
M  V30 BEGIN BOND
M  V30 1 2 1 2
M  V30 2 1 2 3
M  V30 3 1 2 4
M  V30 4 1 3 5
M  V30 5 1 4 6
M  V30 6 1 4 7 CFG=1
M  V30 7 2 5 8
M  V30 8 1 6 9
M  V30 9 1 8 10
M  V30 10 1 10 11
M  V30 11 1 11 12
M  V30 12 1 12 13
M  V30 END BOND
M  V30 BEGIN COLLECTION
M  V30 MDLV30/STERAC1 ATOMS=(1 4)
M  V30 END COLLECTION
M  V30 END CTAB
M  END
>  <Molecule Name>
(3z)-hexenyl-2-methylbutanoate

>  <Molecule Name 2>
(3z)-hexenyl-2-methylbutanoate

>  <Database>
Essential Oil Database

>  <InChI>
InChI=1S/C11H20O2/c1-4-6-7-8-9-13-11(12)10(3)5-2/h8-10H,4-7H2,1-3H3/b9-8+/t10-/m0/s1

>  <InChI-Key>
UYOWSPACKJLYKD-DDXVTDLHSA-N

>  <Smiles>
CCCC/C=C/OC(C(C)CC)=O

>  <Molecular Formula>
C11H20O2

$$$$
alpha-cedrene
Actelion Java MolfileCreator 2.0

  0  0  0  0  0  0              0 V3000
M  V30 BEGIN CTAB
M  V30 COUNTS 15 17 0 0 0
M  V30 BEGIN ATOM
M  V30 1 C 0.0 0.0 0.0 0
M  V30 2 C -0.3938 -1.3414 0.0 0
M  V30 3 C -1.2676 1.0461 0.0 0 CFG=2
M  V30 4 C 1.2184 0.6645 0.0 0
M  V30 5 C -1.9691 -1.6737 0.0 0
M  V30 6 C -2.7198 1.846 0.0 0
M  V30 7 C -2.166 0.1846 0.0 0
M  V30 8 C -3.2736 -0.5661 0.0 0 CFG=2
M  V30 9 C -3.8767 0.8861 0.0 0 CFG=2
M  V30 10 C -3.9505 2.8183 0.0 0
M  V30 11 C -2.0306 3.1752 0.0 0
M  V30 12 C -4.5413 -1.3168 0.0 0 CFG=2
M  V30 13 C -5.4397 0.8614 0.0 0
M  V30 14 C -5.8951 -0.4922 0.0 0
M  V30 15 C -4.5659 -2.6337 0.0 0
M  V30 END ATOM
M  V30 BEGIN BOND
M  V30 1 2 1 2
M  V30 2 1 3 1 CFG=1
M  V30 3 1 1 4
M  V30 4 1 2 5
M  V30 5 1 3 6
M  V30 6 1 3 7
M  V30 7 1 5 8
M  V30 8 1 6 9
M  V30 9 1 6 10
M  V30 10 1 6 11
M  V30 11 1 8 12
M  V30 12 1 9 13 CFG=3
M  V30 13 1 12 14
M  V30 14 1 12 15 CFG=1
M  V30 15 1 8 7 CFG=3
M  V30 16 1 8 9
M  V30 17 1 13 14
M  V30 END BOND
M  V30 BEGIN COLLECTION
M  V30 MDLV30/STERAC1 ATOMS=(4 3 8 9 12)
M  V30 END COLLECTION
M  V30 END CTAB
M  END
>  <Molecule Name>
alpha-cedrene

>  <Molecule Name 2>
alpha-cedrene

>  <Database>
Essential Oil Database

>  <InChI>
InChI=1S/C15H24/c1-10-7-8-15-9-12(10)14(3,4)13(15)6-5-11(15)2/h7,11-13H,5-6,8-9H2,1-4H3/t11-,12+,13+,15+/m0/s1

>  <InChI-Key>
IRAQOCYXUMOFCW-KYEXWDHISA-N

>  <Smiles>
C[C@@H](CC1)[C@@]2(C3)[C@H]1C(C)(C)[C@H]3C(C)=CC2

>  <Molecular Formula>
C15H24

$$$$
2,6-dimethyl-p-cymene
Actelion Java MolfileCreator 2.0

  0  0  0  0  0  0              0 V3000
M  V30 BEGIN CTAB
M  V30 COUNTS 12 12 0 0 0
M  V30 BEGIN ATOM
M  V30 1 C 0.0 0.0 0.0 0
M  V30 2 C 1.1349 0.7982 0.0 0
M  V30 3 C -1.3844 0.7982 0.0 0
M  V30 4 C -0.1247 -1.347 0.0 0
M  V30 5 C 1.0102 2.3946 0.0 0
M  V30 6 C -1.5091 2.3946 0.0 0
M  V30 7 C 1.0102 -2.0205 0.0 0
M  V30 8 C -1.5091 -2.0205 0.0 0
M  V30 9 C -0.3741 3.2053 0.0 0
M  V30 10 C 2.1452 3.2053 0.0 0
M  V30 11 C -2.8935 3.2053 0.0 0
M  V30 12 C -0.4988 4.8018 0.0 0
M  V30 END ATOM
M  V30 BEGIN BOND
M  V30 1 2 1 2
M  V30 2 1 1 3
M  V30 3 1 1 4
M  V30 4 1 2 5
M  V30 5 2 3 6
M  V30 6 1 4 7
M  V30 7 1 4 8
M  V30 8 2 5 9
M  V30 9 1 5 10
M  V30 10 1 6 11
M  V30 11 1 9 12
M  V30 12 1 6 9
M  V30 END BOND
M  V30 END CTAB
M  END
>  <Molecule Name>
2,6-dimethyl-p-cymene

>  <Molecule Name 2>
2,6-dimethyl-p-cymene

>  <Database>
Essential Oil Database

>  <InChI>
InChI=1S/C12H18/c1-8(2)12-6-9(3)11(5)10(4)7-12/h6-8H,1-5H3

>  <InChI-Key>
YVWPOHRTFUXRNK-UHFFFAOYSA-N

>  <Smiles>
CC(C)c1cc(C)c(C)c(C)c1

>  <Molecular Formula>
C12H18

$$$$
alpha-campholenol
Actelion Java MolfileCreator 2.0

  0  0  0  0  0  0              0 V3000
M  V30 BEGIN CTAB
M  V30 COUNTS 11 11 0 0 0
M  V30 BEGIN ATOM
M  V30 1 O 0.0 0.0 0.0 0
M  V30 2 C 1.3689 -0.3364 0.0 0
M  V30 3 C 1.5545 -1.7401 0.0 0
M  V30 4 C 2.9234 -2.0766 0.0 0 CFG=2
M  V30 5 C 4.0836 -1.0092 0.0 0
M  V30 6 C 3.2599 -3.4455 0.0 0
M  V30 7 C 5.2437 -1.8445 0.0 0
M  V30 8 C 3.1787 0.4756 0.0 0
M  V30 9 C 4.6868 0.4756 0.0 0
M  V30 10 C 4.6984 -3.3295 0.0 0
M  V30 11 C 6.6126 -1.2761 0.0 0
M  V30 END ATOM
M  V30 BEGIN BOND
M  V30 1 1 1 2
M  V30 2 1 2 3
M  V30 3 1 4 3 CFG=3
M  V30 4 1 4 5
M  V30 5 1 4 6
M  V30 6 1 5 7
M  V30 7 1 5 8
M  V30 8 1 5 9
M  V30 9 1 6 10
M  V30 10 1 7 11
M  V30 11 2 7 10
M  V30 END BOND
M  V30 BEGIN COLLECTION
M  V30 MDLV30/STERAC1 ATOMS=(1 4)
M  V30 END COLLECTION
M  V30 END CTAB
M  END
>  <Molecule Name>
alpha-campholenol

>  <Molecule Name 2>
alpha-campholenol

>  <Database>
Essential Oil Database

>  <InChI>
InChI=1S/C10H18O/c1-8-4-5-9(6-7-11)10(8,2)3/h4,9,11H,5-7H2,1-3H3/t9-/m1/s1

>  <InChI-Key>
NPGPPCSBEMHHCR-SECBINFHSA-N

>  <Smiles>
CC1(C)C(C)=CCC1CCO

>  <Molecular Formula>
C10H18O

$$$$
bornyl formate
Actelion Java MolfileCreator 2.0

  0  0  0  0  0  0              0 V3000
M  V30 BEGIN CTAB
M  V30 COUNTS 13 14 0 0 0
M  V30 BEGIN ATOM
M  V30 1 O 0.0 0.0 0.0 0
M  V30 2 C -0.1205 -1.3014 0.0 0
M  V30 3 O -1.4581 -1.9401 0.0 0
M  V30 4 C -2.7957 -1.1568 0.0 0 CFG=2
M  V30 5 C -4.1334 -1.7955 0.0 0 CFG=1
M  V30 6 C -2.9162 0.3856 0.0 0
M  V30 7 C -4.6395 -0.253 0.0 0
M  V30 8 C -5.471 -1.0122 0.0 0
M  V30 9 C -4.2539 -3.097 0.0 0
M  V30 10 C -4.2539 1.1689 0.0 0 CFG=2
M  V30 11 C -6.1218 -0.5663 0.0 0
M  V30 12 C -6.1218 0.3012 0.0 0
M  V30 13 C -5.5915 0.5302 0.0 0
M  V30 END ATOM
M  V30 BEGIN BOND
M  V30 1 2 1 2
M  V30 2 1 2 3
M  V30 3 1 4 3 CFG=3
M  V30 4 1 4 5
M  V30 5 1 4 6
M  V30 6 1 5 7
M  V30 7 1 5 8
M  V30 8 1 5 9 CFG=1
M  V30 9 1 10 6 CFG=3
M  V30 10 1 7 11
M  V30 11 1 7 12
M  V30 12 1 8 13
M  V30 13 1 7 10
M  V30 14 1 10 13
M  V30 END BOND
M  V30 BEGIN COLLECTION
M  V30 MDLV30/STERAC1 ATOMS=(3 4 5 10)
M  V30 END COLLECTION
M  V30 END CTAB
M  END
>  <Molecule Name>
bornyl formate

>  <Molecule Name 2>
bornyl formate

>  <Database>
Essential Oil Database

>  <InChI>
InChI=1S/C11H18O2/c1-10(2)8-4-5-11(10,3)9(6-8)13-7-12/h7-9H,4-6H2,1-3H3/t8-,9+,11+/m1/s1

>  <InChI-Key>
RDWUNORUTVEHJF-YWVKMMECSA-N

>  <Smiles>
CC(C)([C@H](CC1)C2)[C@]1(C)[C@H]2OC=O

>  <Molecular Formula>
C11H18O2

$$$$
isocaryophyllene
Actelion Java MolfileCreator 2.0

  0  0  0  0  0  0              0 V3000
M  V30 BEGIN CTAB
M  V30 COUNTS 15 16 0 0 0
M  V30 BEGIN ATOM
M  V30 1 C 0.0 0.0 0.0 0
M  V30 2 C -0.8021 -1.1229 0.0 0
M  V30 3 C -1.0242 1.2093 0.0 0 CFG=1
M  V30 4 C 1.308 -0.148 0.0 0
M  V30 5 C -1.1476 2.7888 0.0 0 CFG=1
M  V30 6 C -2.6037 1.3327 0.0 0
M  V30 7 C 2.431 0.6416 0.0 0
M  V30 8 C -2.7271 2.9122 0.0 0
M  V30 9 C -0.3702 3.9982 0.0 0
M  V30 10 C 2.8382 2.1225 0.0 0
M  V30 11 C -4.3067 3.0356 0.0 0
M  V30 12 C -2.8505 4.4918 0.0 0
M  V30 13 C 0.9378 4.3931 0.0 0
M  V30 14 C 2.1842 3.6033 0.0 0
M  V30 15 C 3.1467 4.6275 0.0 0
M  V30 END ATOM
M  V30 BEGIN BOND
M  V30 1 2 1 2
M  V30 2 1 3 1 CFG=3
M  V30 3 1 1 4
M  V30 4 1 3 5
M  V30 5 1 3 6
M  V30 6 1 4 7
M  V30 7 1 5 8
M  V30 8 1 5 9 CFG=1
M  V30 9 1 7 10
M  V30 10 1 8 11
M  V30 11 1 8 12
M  V30 12 1 9 13
M  V30 13 2 10 14
M  V30 14 1 14 15
M  V30 15 1 6 8
M  V30 16 1 13 14
M  V30 END BOND
M  V30 BEGIN COLLECTION
M  V30 MDLV30/STERAC1 ATOMS=(2 3 5)
M  V30 END COLLECTION
M  V30 END CTAB
M  END
>  <Molecule Name>
isocaryophyllene

>  <Molecule Name 2>
isocaryophyllene

>  <Database>
Essential Oil Database

>  <InChI>
InChI=1S/C15H24/c1-11-6-5-7-12(2)13-10-15(3,4)14(13)9-8-11/h6,13-14H,2,5,7-10H2,1,3-4H3/b11-6+/t13-,14-/m0/s1

>  <InChI-Key>
NPNUFJAVOOONJE-IOMPXFEGSA-N

>  <Smiles>
CC(C)(C1)[C@@H](CC/C(\C)=C\CC2)[C@@H]1C2=C

>  <Molecular Formula>
C15H24

$$$$
p-menthylanisole
Actelion Java MolfileCreator 2.0

  0  0  0  0  0  0              0 V3000
M  V30 BEGIN CTAB
M  V30 COUNTS 18 19 0 0 0
M  V30 BEGIN ATOM
M  V30 1 O 0.0 0.0 0.0 0
M  V30 2 C -0.1307 -1.4122 0.0 0
M  V30 3 C -1.4515 0.8499 0.0 0
M  V30 4 C 1.0592 -2.1053 0.0 0
M  V30 5 C -1.5822 -2.1053 0.0 0
M  V30 6 C 0.9284 -3.5176 0.0 0
M  V30 7 C -1.713 -3.5176 0.0 0
M  V30 8 C -0.523 -4.2107 0.0 0
M  V30 9 C -0.6538 -5.623 0.0 0
M  V30 10 C -2.1053 -6.316 0.0 0
M  V30 11 C 0.5361 -6.316 0.0 0
M  V30 12 C -3.5568 -5.466 0.0 0
M  V30 13 C -2.2361 -7.7283 0.0 0
M  V30 14 C 0.4053 -7.7283 0.0 0
M  V30 15 C -3.6876 -3.7922 0.0 0
M  V30 16 C -5.0084 -6.1591 0.0 0
M  V30 17 C -1.0461 -8.4345 0.0 0
M  V30 18 C 1.5953 -8.4345 0.0 0
M  V30 END ATOM
M  V30 BEGIN BOND
M  V30 1 1 1 2
M  V30 2 1 1 3
M  V30 3 2 2 4
M  V30 4 1 2 5
M  V30 5 1 4 6
M  V30 6 2 5 7
M  V30 7 2 6 8
M  V30 8 1 8 9
M  V30 9 1 9 10
M  V30 10 1 9 11
M  V30 11 1 10 12
M  V30 12 1 10 13
M  V30 13 1 11 14
M  V30 14 1 12 15
M  V30 15 1 12 16
M  V30 16 1 13 17
M  V30 17 1 14 18
M  V30 18 1 7 8
M  V30 19 1 14 17
M  V30 END BOND
M  V30 END CTAB
M  END
>  <Molecule Name>
p-menthylanisole

>  <Molecule Name 2>
p-menthylanisole

>  <Database>
Essential Oil Database

>  <InChI>
InChI=1S/C17H26O/c1-12(2)16-10-5-13(3)11-17(16)14-6-8-15(18-4)9-7-14/h6-9,12-13,16-17H,5,10-11H2,1-4H3

>  <InChI-Key>
DZCMNANZDIILPI-UHFFFAOYSA-N

>  <Smiles>
CC(C)C(CCC(C)C1)C1c(cc1)ccc1OC

>  <Molecular Formula>
C17H26O

$$$$
p-menth-3-ene
Actelion Java MolfileCreator 2.0

  0  0  0  0  0  0              0 V3000
M  V30 BEGIN CTAB
M  V30 COUNTS 10 10 0 0 0
M  V30 BEGIN ATOM
M  V30 1 C 0.0 0.0 0.0 0
M  V30 2 C -1.3843 0.7981 0.0 0
M  V30 3 C -0.1247 -1.3469 0.0 0
M  V30 4 C 1.1349 0.7981 0.0 0
M  V30 5 C -1.509 2.3945 0.0 0
M  V30 6 C 1.0102 -2.0204 0.0 0
M  V30 7 C -1.509 -2.0204 0.0 0
M  V30 8 C 1.0102 2.3945 0.0 0
M  V30 9 C -0.3741 3.2052 0.0 0 CFG=2
M  V30 10 C -0.4988 4.8015 0.0 0
M  V30 END ATOM
M  V30 BEGIN BOND
M  V30 1 2 1 2
M  V30 2 1 1 3
M  V30 3 1 1 4
M  V30 4 1 2 5
M  V30 5 1 3 6
M  V30 6 1 3 7
M  V30 7 1 4 8
M  V30 8 1 5 9
M  V30 9 1 9 10 CFG=1
M  V30 10 1 8 9
M  V30 END BOND
M  V30 BEGIN COLLECTION
M  V30 MDLV30/STERAC1 ATOMS=(1 9)
M  V30 END COLLECTION
M  V30 END CTAB
M  END
>  <Molecule Name>
p-menth-3-ene

>  <Molecule Name 2>
p-menth-3-ene

>  <Database>
Essential Oil Database

>  <InChI>
InChI=1S/C10H18/c1-8(2)10-6-4-9(3)5-7-10/h6,8-9H,4-5,7H2,1-3H3/t9-/m1/s1

>  <InChI-Key>
YYCPSEFQLGXPCO-SECBINFHSA-N

>  <Smiles>
CC(C)C1=CCC(C)CC1

>  <Molecular Formula>
C10H18

$$$$
p-menthoxy benzaldehyde
Actelion Java MolfileCreator 2.0

  0  0  0  0  0  0              0 V3000
M  V30 BEGIN CTAB
M  V30 COUNTS 19 20 0 0 0
M  V30 BEGIN ATOM
M  V30 1 O 0.0 0.0 0.0 0
M  V30 2 C 1.2589 -0.6178 0.0 0
M  V30 3 C 1.1423 -2.0749 0.0 0
M  V30 4 C 2.4013 -2.6927 0.0 0
M  V30 5 C -0.3497 -2.6927 0.0 0
M  V30 6 C 2.2847 -4.1498 0.0 0
M  V30 7 C -0.4662 -4.1498 0.0 0
M  V30 8 C 0.7926 -4.7676 0.0 0
M  V30 9 O 0.6761 -6.2248 0.0 0
M  V30 10 C 1.935 -6.8542 0.0 0
M  V30 11 C 1.8184 -8.3114 0.0 0
M  V30 12 C 3.194 -5.91 0.0 0
M  V30 13 C 0.3263 -8.9408 0.0 0
M  V30 14 C 3.0774 -8.9408 0.0 0
M  V30 15 C 4.4529 -6.5395 0.0 0
M  V30 16 C -1.1656 -7.985 0.0 0
M  V30 17 C 0.2098 -10.398 0.0 0
M  V30 18 C 4.3363 -7.985 0.0 0
M  V30 19 C 5.7119 -5.5953 0.0 0
M  V30 END ATOM
M  V30 BEGIN BOND
M  V30 1 2 1 2
M  V30 2 1 2 3
M  V30 3 2 3 4
M  V30 4 1 3 5
M  V30 5 1 4 6
M  V30 6 2 5 7
M  V30 7 2 6 8
M  V30 8 1 8 9
M  V30 9 1 9 10
M  V30 10 1 10 11
M  V30 11 1 10 12
M  V30 12 1 11 13
M  V30 13 1 11 14
M  V30 14 1 12 15
M  V30 15 1 13 16
M  V30 16 1 13 17
M  V30 17 1 14 18
M  V30 18 1 15 19
M  V30 19 1 7 8
M  V30 20 1 15 18
M  V30 END BOND
M  V30 END CTAB
M  END
>  <Molecule Name>
p-menthoxy benzaldehyde

>  <Molecule Name 2>
p-menthoxy benzaldehyde

>  <Database>
Essential Oil Database

>  <InChI>
InChI=1S/C17H24O2/c1-12(2)16-9-4-13(3)10-17(16)19-15-7-5-14(11-18)6-8-15/h5-8,11-13,16-17H,4,9-10H2,1-3H3

>  <InChI-Key>
RBJGXRNLHNXKRM-UHFFFAOYSA-N

>  <Smiles>
CC(C)C(CCC(C)C1)C1Oc1ccc(C=O)cc1

>  <Molecular Formula>
C17H24O2

$$$$
dill ether
Actelion Java MolfileCreator 2.0

  0  0  0  0  0  0              0 V3000
M  V30 BEGIN CTAB
M  V30 COUNTS 11 12 0 0 0
M  V30 BEGIN ATOM
M  V30 1 O 0.0 0.0 0.0 0
M  V30 2 C 1.3812 -0.3337 0.0 0 CFG=2
M  V30 3 C -1.0819 -1.174 0.0 0
M  V30 4 C 2.6358 0.6215 0.0 0
M  V30 5 C 1.2661 -1.784 0.0 0 CFG=1
M  V30 6 C -0.2302 -2.3481 0.0 0 CFG=1
M  V30 7 C 3.8904 0.0 0.0 0
M  V30 8 C 2.5207 -2.4056 0.0 0
M  V30 9 C -0.7942 -3.7293 0.0 0
M  V30 10 C 3.7753 -1.4502 0.0 0
M  V30 11 C 5.1451 0.9553 0.0 0
M  V30 END ATOM
M  V30 BEGIN BOND
M  V30 1 1 2 1 CFG=3
M  V30 2 1 1 3
M  V30 3 1 2 4
M  V30 4 1 2 5
M  V30 5 1 3 6
M  V30 6 2 4 7
M  V30 7 1 5 8 CFG=3
M  V30 8 1 6 9 CFG=1
M  V30 9 1 7 10
M  V30 10 1 7 11
M  V30 11 1 5 6
M  V30 12 1 8 10
M  V30 END BOND
M  V30 BEGIN COLLECTION
M  V30 MDLV30/STERAC1 ATOMS=(3 2 5 6)
M  V30 END COLLECTION
M  V30 END CTAB
M  END
>  <Molecule Name>
dill ether

>  <Molecule Name 2>
dill ether

>  <Database>
Essential Oil Database

>  <InChI>
InChI=1S/C10H16O/c1-7-3-4-9-8(2)6-11-10(9)5-7/h5,8-10H,3-4,6H2,1-2H3/t8-,9+,10+/m0/s1

>  <InChI-Key>
KBPPPUZMFQKLNP-IVZWLZJFSA-N

>  <Smiles>
C[C@@H]1[C@@H](CCC(C)=C2)[C@@H]2OC1

>  <Molecular Formula>
C10H16O

$$$$
isoborneol
Actelion Java MolfileCreator 2.0

  0  0  0  0  0  0              0 V3000
M  V30 BEGIN CTAB
M  V30 COUNTS 11 12 0 0 0
M  V30 BEGIN ATOM
M  V30 1 O 0.0 0.0 0.0 0
M  V30 2 C -1.3226 0.7625 0.0 0 CFG=1
M  V30 3 C -2.6452 0.131 0.0 0 CFG=1
M  V30 4 C -1.4417 2.2877 0.0 0
M  V30 5 C -3.1456 1.6562 0.0 0
M  V30 6 C -3.9678 0.9055 0.0 0
M  V30 7 C -2.7643 -1.1557 0.0 0
M  V30 8 C -2.7643 3.0622 0.0 0 CFG=1
M  V30 9 C -4.6112 2.2043 0.0 0
M  V30 10 C -4.6112 1.3464 0.0 0
M  V30 11 C -4.0869 2.4307 0.0 0
M  V30 END ATOM
M  V30 BEGIN BOND
M  V30 1 1 2 1 CFG=1
M  V30 2 1 2 3
M  V30 3 1 2 4
M  V30 4 1 3 5
M  V30 5 1 3 6
M  V30 6 1 3 7 CFG=1
M  V30 7 1 8 4 CFG=1
M  V30 8 1 5 9
M  V30 9 1 5 10
M  V30 10 1 6 11
M  V30 11 1 5 8
M  V30 12 1 8 11
M  V30 END BOND
M  V30 BEGIN COLLECTION
M  V30 MDLV30/STERAC1 ATOMS=(3 2 3 8)
M  V30 END COLLECTION
M  V30 END CTAB
M  END
>  <Molecule Name>
isoborneol

>  <Molecule Name 2>
isoborneol

>  <Database>
Essential Oil Database

>  <InChI>
InChI=1S/C10H18O/c1-9(2)7-4-5-10(9,3)8(11)6-7/h7-8,11H,4-6H2,1-3H3/t7-,8+,10-/m0/s1

>  <InChI-Key>
DTGKSKDOIYIVQL-XKSSXDPKSA-N

>  <Smiles>
CC(C)([C@@H](CC1)C2)[C@]1(C)[C@@H]2O

>  <Molecular Formula>
C10H18O

$$$$
alpha-bulnesene
Actelion Java MolfileCreator 2.0

  0  0  0  0  0  0              0 V3000
M  V30 BEGIN CTAB
M  V30 COUNTS 15 16 0 0 0
M  V30 BEGIN ATOM
M  V30 1 C 0.0 0.0 0.0 0
M  V30 2 C -1.3159 -0.8049 0.0 0
M  V30 3 C 1.3798 -0.2299 0.0 0
M  V30 4 C -0.4854 1.6353 0.0 0
M  V30 5 C -1.4437 -2.223 0.0 0 CFG=1
M  V30 6 C -2.9129 -0.1788 0.0 0
M  V30 7 C 1.9547 -1.482 0.0 0
M  V30 8 C -3.0407 -2.5935 0.0 0 CFG=1
M  V30 9 C -0.3832 -3.0279 0.0 0
M  V30 10 C -3.9222 -1.2903 0.0 0
M  V30 11 C 1.1243 -2.7341 0.0 0 CFG=1
M  V30 12 C -3.6667 -3.935 0.0 0
M  V30 13 C 1.9292 -3.7945 0.0 0
M  V30 14 C 1.2137 -5.0977 0.0 0
M  V30 15 C 3.3345 -3.424 0.0 0
M  V30 END ATOM
M  V30 BEGIN BOND
M  V30 1 2 1 2
M  V30 2 1 1 3
M  V30 3 1 1 4
M  V30 4 1 2 5
M  V30 5 1 2 6
M  V30 6 1 3 7
M  V30 7 1 5 8
M  V30 8 1 5 9 CFG=3
M  V30 9 1 6 10
M  V30 10 1 7 11
M  V30 11 1 8 12 CFG=3
M  V30 12 1 11 13 CFG=3
M  V30 13 2 13 14
M  V30 14 1 13 15
M  V30 15 1 8 10
M  V30 16 1 9 11
M  V30 END BOND
M  V30 BEGIN COLLECTION
M  V30 MDLV30/STERAC1 ATOMS=(3 5 8 11)
M  V30 END COLLECTION
M  V30 END CTAB
M  END
>  <Molecule Name>
alpha-bulnesene

>  <Molecule Name 2>
alpha-bulnesene

>  <Database>
Essential Oil Database

>  <InChI>
InChI=1S/C15H24/c1-10(2)13-7-5-11(3)14-8-6-12(4)15(14)9-13/h12-13,15H,1,5-9H2,2-4H3/t12-,13+,15-/m1/s1

>  <InChI-Key>
YHAJBLWYOIUHHM-VNHYZAJKSA-N

>  <Smiles>
C[C@H](CC1)[C@@H](C2)C1=C(C)CC[C@@H]2C(C)=C

>  <Molecular Formula>
C15H24

$$$$
5-3-hexenyl benzoate
Actelion Java MolfileCreator 2.0

  0  0  0  0  0  0              0 V3000
M  V30 BEGIN CTAB
M  V30 COUNTS 15 15 0 0 0
M  V30 BEGIN ATOM
M  V30 1 O 0.0 0.0 0.0 0
M  V30 2 C 1.2191 -0.5982 0.0 0
M  V30 3 O 2.4383 0.316 0.0 0 CHG=-1
M  V30 4 C 1.1062 -2.0093 0.0 0
M  V30 5 C -0.3386 -2.6076 0.0 0
M  V30 6 C 2.3254 -2.6076 0.0 0
M  V30 7 C -0.4515 -4.0187 0.0 0
M  V30 8 C 2.2125 -4.0187 0.0 0
M  V30 9 C 0.7676 -4.617 0.0 0
M  V30 10 C -1.8964 -4.617 0.0 0
M  V30 11 C -3.3414 -3.7026 0.0 0
M  V30 12 C -4.7863 -4.3009 0.0 0
M  V30 13 C -6.2313 -3.3865 0.0 0
M  V30 14 C -7.6762 -3.9848 0.0 0
M  V30 15 C -7.7891 -5.3959 0.0 0
M  V30 END ATOM
M  V30 BEGIN BOND
M  V30 1 2 1 2
M  V30 2 1 2 3
M  V30 3 1 2 4
M  V30 4 2 4 5
M  V30 5 1 4 6
M  V30 6 1 5 7
M  V30 7 2 6 8
M  V30 8 2 7 9
M  V30 9 1 7 10
M  V30 10 1 10 11
M  V30 11 1 11 12
M  V30 12 2 12 13
M  V30 13 1 13 14
M  V30 14 1 14 15
M  V30 15 1 8 9
M  V30 END BOND
M  V30 END CTAB
M  END
>  <Molecule Name>
5-3-hexenyl benzoate

>  <Molecule Name 2>
5-3-hexenyl benzoate

>  <Database>
Essential Oil Database

>  <InChI>
InChI=1S/C13H16O2/c1-2-3-4-5-7-11-8-6-9-12(10-11)13(14)15/h3-4,6,8-10H,2,5,7H2,1H3,(H,14,15)/p-1/b4-3+

>  <InChI-Key>
ZYWROUBDJZVJMC-ONEGZZNKSA-M

>  <Smiles>
CC/C=C/CCc1cccc(C([O-])=O)c1

>  <Molecular Formula>
C13H15O2

$$$$
germacrene a
Actelion Java MolfileCreator 2.0

  0  0  0  0  0  0              0 V3000
M  V30 BEGIN CTAB
M  V30 COUNTS 15 15 0 0 0
M  V30 BEGIN ATOM
M  V30 1 C 0.0 0.0 0.0 0
M  V30 2 C 0.9191 1.1274 0.0 0
M  V30 3 C 0.2573 -1.3235 0.0 0
M  V30 4 C -1.5563 0.5637 0.0 0
M  V30 5 C 0.4166 2.6961 0.0 0
M  V30 6 C 1.5686 -1.6421 0.0 0
M  V30 7 C 1.3358 3.8235 0.0 0 CFG=1
M  V30 8 C 2.4877 -0.5147 0.0 0
M  V30 9 C 0.8333 5.3922 0.0 0
M  V30 10 C 2.6471 3.5049 0.0 0
M  V30 11 C 1.9853 1.0539 0.0 0
M  V30 12 C 1.7524 6.5197 0.0 0
M  V30 13 C -0.723 5.9559 0.0 0
M  V30 14 C 2.9044 2.1814 0.0 0
M  V30 15 C 0.4656 0.625 0.0 0
M  V30 END ATOM
M  V30 BEGIN BOND
M  V30 1 2 1 2
M  V30 2 1 1 3
M  V30 3 1 1 4
M  V30 4 1 2 5
M  V30 5 1 3 6
M  V30 6 1 5 7
M  V30 7 1 6 8
M  V30 8 1 7 9 CFG=1
M  V30 9 1 7 10
M  V30 10 2 8 11
M  V30 11 2 9 12
M  V30 12 1 9 13
M  V30 13 1 10 14
M  V30 14 1 11 15
M  V30 15 1 11 14
M  V30 END BOND
M  V30 BEGIN COLLECTION
M  V30 MDLV30/STERAC1 ATOMS=(1 7)
M  V30 END COLLECTION
M  V30 END CTAB
M  END
>  <Molecule Name>
germacrene a

>  <Molecule Name 2>
germacrene a

>  <Database>
Essential Oil Database

>  <InChI>
InChI=1S/C15H24/c1-12(2)15-10-8-13(3)6-5-7-14(4)9-11-15/h6,9,15H,1,5,7-8,10-11H2,2-4H3/b13-6-,14-9+/t15-/m0/s1

>  <InChI-Key>
XMRKUJJDDKYUHV-GNVJXCABSA-N

>  <Smiles>
CC(C1C/C=C(\C)/CC/C=C(\C)/CC1)=C

>  <Molecular Formula>
C15H24

$$$$
phytol acetate
Actelion Java MolfileCreator 2.0

  0  0  0  0  0  0              0 V3000
M  V30 BEGIN CTAB
M  V30 COUNTS 24 23 0 0 0
M  V30 BEGIN ATOM
M  V30 1 O 0.0 0.0 0.0 0
M  V30 2 C 1.275 -0.6199 0.0 0
M  V30 3 O 2.5501 0.3392 0.0 0
M  V30 4 C 1.1581 -2.0939 0.0 0
M  V30 5 C 3.8252 -0.2807 0.0 0
M  V30 6 C 5.1003 0.6784 0.0 0
M  V30 7 C 6.3754 0.0584 0.0 0
M  V30 8 C 7.6505 1.0177 0.0 0
M  V30 9 C 6.2584 -1.4154 0.0 0
M  V30 10 C 8.9256 0.3977 0.0 0
M  V30 11 C 10.2007 1.3452 0.0 0
M  V30 12 C 11.4758 0.7252 0.0 0 CFG=2
M  V30 13 C 12.7508 1.6845 0.0 0
M  V30 14 C 11.3588 -0.7486 0.0 0
M  V30 15 C 14.0259 1.0645 0.0 0
M  V30 16 C 15.301 2.0237 0.0 0
M  V30 17 C 16.5761 1.4037 0.0 0 CFG=2
M  V30 18 C 17.8512 2.363 0.0 0
M  V30 19 C 16.4591 -0.0701 0.0 0
M  V30 20 C 19.1263 1.743 0.0 0
M  V30 21 C 20.4014 2.6905 0.0 0
M  V30 22 C 21.6765 2.0705 0.0 0
M  V30 23 C 22.9516 3.0297 0.0 0
M  V30 24 C 21.5595 0.5966 0.0 0
M  V30 END ATOM
M  V30 BEGIN BOND
M  V30 1 2 1 2
M  V30 2 1 2 3
M  V30 3 1 2 4
M  V30 4 1 3 5
M  V30 5 1 5 6
M  V30 6 2 6 7
M  V30 7 1 7 8
M  V30 8 1 7 9
M  V30 9 1 8 10
M  V30 10 1 10 11
M  V30 11 1 11 12
M  V30 12 1 12 13
M  V30 13 1 12 14 CFG=3
M  V30 14 1 13 15
M  V30 15 1 15 16
M  V30 16 1 16 17
M  V30 17 1 17 18
M  V30 18 1 17 19 CFG=3
M  V30 19 1 18 20
M  V30 20 1 20 21
M  V30 21 1 21 22
M  V30 22 1 22 23
M  V30 23 1 22 24
M  V30 END BOND
M  V30 BEGIN COLLECTION
M  V30 MDLV30/STERAC1 ATOMS=(2 12 17)
M  V30 END COLLECTION
M  V30 END CTAB
M  END
>  <Molecule Name>
phytol acetate

>  <Molecule Name 2>
phytol acetate

>  <Database>
Essential Oil Database

>  <InChI>
InChI=1S/C22H42O2/c1-18(2)10-7-11-19(3)12-8-13-20(4)14-9-15-21(5)16-17-24-22(6)23/h16,18-20H,7-15,17H2,1-6H3/b21-16+/t19-,20-/m0/s1

>  <InChI-Key>
JIGCTXHIECXYRJ-REYVGQHQSA-N

>  <Smiles>
CC(C)CCC[C@H](C)CCC[C@H](C)CCC/C(\C)=C/COC(C)=O

>  <Molecular Formula>
C22H42O2

$$$$
camphoric acid
Actelion Java MolfileCreator 2.0

  0  0  0  0  0  0              0 V3000
M  V30 BEGIN CTAB
M  V30 COUNTS 14 14 0 0 0
M  V30 BEGIN ATOM
M  V30 1 O 0.0 0.0 0.0 0
M  V30 2 C -0.6142 -1.3436 0.0 0
M  V30 3 O -2.2522 -1.5739 0.0 0
M  V30 4 C 0.2815 -2.329 0.0 0
M  V30 5 C 1.3948 -1.318 0.0 0
M  V30 6 C 0.6526 -3.6726 0.0 0
M  V30 7 C -1.3564 -2.5209 0.0 0
M  V30 8 C 2.5081 -2.0986 0.0 0
M  V30 9 C 2.2778 -0.0639 0.0 0
M  V30 10 C 0.2559 -0.0639 0.0 0
M  V30 11 C 2.073 -3.5446 0.0 0
M  V30 12 C 3.8518 -1.4716 0.0 0
M  V30 13 O 4.8499 -2.3545 0.0 0
M  V30 14 O 4.0565 0.1663 0.0 0
M  V30 END ATOM
M  V30 BEGIN BOND
M  V30 1 2 1 2
M  V30 2 1 2 3
M  V30 3 1 2 4
M  V30 4 1 4 5
M  V30 5 1 4 6
M  V30 6 1 4 7
M  V30 7 1 5 8
M  V30 8 1 5 9
M  V30 9 1 5 10
M  V30 10 1 6 11
M  V30 11 1 8 12
M  V30 12 2 12 13
M  V30 13 1 12 14
M  V30 14 1 8 11
M  V30 END BOND
M  V30 END CTAB
M  END
>  <Molecule Name>
camphoric acid

>  <Molecule Name 2>
camphoric acid

>  <Database>
Essential Oil Database

>  <InChI>
InChI=1S/C10H16O4/c1-9(2)6(7(11)12)4-5-10(9,3)8(13)14/h6H,4-5H2,1-3H3,(H,11,12)(H,13,14)

>  <InChI-Key>
LSPHULWDVZXLIL-UHFFFAOYSA-N

>  <Smiles>
CC(C)(C(CC1)C(O)=O)C1(C)C(O)=O

>  <Molecular Formula>
C10H16O4

$$$$
cis-muurola-3,5-diene
Actelion Java MolfileCreator 2.0

  0  0  0  0  0  0              0 V3000
M  V30 BEGIN CTAB
M  V30 COUNTS 15 16 0 0 0
M  V30 BEGIN ATOM
M  V30 1 C 0.0 0.0 0.0 0
M  V30 2 C 1.1512 -0.6831 0.0 0
M  V30 3 C -0.1265 1.6193 0.0 0 CFG=2
M  V30 4 C -1.4042 -0.6831 0.0 0 CFG=1
M  V30 5 C 2.3024 0.1391 0.0 0
M  V30 6 C -1.5307 2.4416 0.0 0 CFG=1
M  V30 7 C 1.0247 2.4416 0.0 0
M  V30 8 C -1.5307 -2.0494 0.0 0
M  V30 9 C -2.8085 0.1391 0.0 0
M  V30 10 C 2.1759 1.7584 0.0 0
M  V30 11 C 3.4537 -0.5439 0.0 0
M  V30 12 C -2.935 1.7711 0.0 0
M  V30 13 C -1.6572 4.0609 0.0 0
M  V30 14 C -0.3795 -2.7326 0.0 0
M  V30 15 C -2.935 -2.7326 0.0 0
M  V30 END ATOM
M  V30 BEGIN BOND
M  V30 1 2 1 2
M  V30 2 1 1 3
M  V30 3 1 1 4
M  V30 4 1 2 5
M  V30 5 1 3 6
M  V30 6 1 3 7 CFG=3
M  V30 7 1 4 8 CFG=1
M  V30 8 1 4 9
M  V30 9 2 5 10
M  V30 10 1 5 11
M  V30 11 1 6 12
M  V30 12 1 6 13 CFG=1
M  V30 13 1 8 14
M  V30 14 1 8 15
M  V30 15 1 7 10
M  V30 16 1 9 12
M  V30 END BOND
M  V30 BEGIN COLLECTION
M  V30 MDLV30/STERAC1 ATOMS=(3 3 4 6)
M  V30 END COLLECTION
M  V30 END CTAB
M  END
>  <Molecule Name>
cis-muurola-3,5-diene

>  <Molecule Name 2>
cis-muurola-3,5-diene

>  <Database>
Essential Oil Database

>  <InChI>
InChI=1S/C15H24/c1-10(2)13-8-6-12(4)14-7-5-11(3)9-15(13)14/h5,9-10,12-14H,6-8H2,1-4H3/t12-,13-,14+/m1/s1

>  <InChI-Key>
JOCWPECWTZZSSX-MCIONIFRSA-N

>  <Smiles>
CC(C)[C@@H]1C2=CC(C)=CC[C@H]2[C@H](C)CC1

>  <Molecular Formula>
C15H24

$$$$
levomenol
Actelion Java MolfileCreator 2.0

  0  0  0  0  0  0              0 V3000
M  V30 BEGIN CTAB
M  V30 COUNTS 16 16 0 0 0
M  V30 BEGIN ATOM
M  V30 1 O 0.0 0.0 0.0 0
M  V30 2 C -1.6356 0.1277 0.0 0 CFG=2
M  V30 3 C -1.7633 -1.2522 0.0 0 CFG=2
M  V30 4 C -1.7633 1.7633 0.0 0
M  V30 5 C -3.2712 0.2555 0.0 0
M  V30 6 C -3.1817 -1.9295 0.0 0
M  V30 7 C -0.6005 -1.9295 0.0 0
M  V30 8 C -3.1817 2.5939 0.0 0
M  V30 9 C -3.3095 -3.3095 0.0 0
M  V30 10 C -0.7283 -3.3095 0.0 0
M  V30 11 C -3.3095 4.2295 0.0 0
M  V30 12 C -2.1467 -3.9868 0.0 0
M  V30 13 C -2.1467 5.0601 0.0 0
M  V30 14 C -2.2745 -5.3668 0.0 0
M  V30 15 C -2.2745 6.6957 0.0 0
M  V30 16 C -0.9839 4.3829 0.0 0
M  V30 END ATOM
M  V30 BEGIN BOND
M  V30 1 1 1 2
M  V30 2 1 2 3
M  V30 3 1 2 4
M  V30 4 1 2 5 CFG=1
M  V30 5 1 3 6 CFG=1
M  V30 6 1 3 7
M  V30 7 1 4 8
M  V30 8 1 6 9
M  V30 9 1 7 10
M  V30 10 1 8 11
M  V30 11 2 9 12
M  V30 12 2 11 13
M  V30 13 1 12 14
M  V30 14 1 13 15
M  V30 15 1 13 16
M  V30 16 1 10 12
M  V30 END BOND
M  V30 BEGIN COLLECTION
M  V30 MDLV30/STERAC1 ATOMS=(2 2 3)
M  V30 END COLLECTION
M  V30 END CTAB
M  END
>  <Molecule Name>
levomenol

>  <Molecule Name 2>
levomenol

>  <Database>
Essential Oil Database

>  <InChI>
InChI=1S/C15H26O/c1-12(2)6-5-11-15(4,16)14-9-7-13(3)8-10-14/h6-7,14,16H,5,8-11H2,1-4H3/t14-,15+/m1/s1

>  <InChI-Key>
RGZSQWQPBWRIAQ-CABCVRRESA-N

>  <Smiles>
C[C@](CCC=C(C)C)([C@@H]1CC=C(C)CC1)O

>  <Molecular Formula>
C15H26O

$$$$
7-epi-sesquithujene
Actelion Java MolfileCreator 2.0

  0  0  0  0  0  0              0 V3000
M  V30 BEGIN CTAB
M  V30 COUNTS 15 16 0 0 0
M  V30 BEGIN ATOM
M  V30 1 C 0.0 0.0 0.0 0
M  V30 2 C 0.7511 -1.0641 0.0 0
M  V30 3 C -1.5398 -0.363 0.0 0 CFG=2
M  V30 4 C 0.363 1.5398 0.0 0
M  V30 5 C -0.2128 -2.1282 0.0 0
M  V30 6 C -1.665 -1.7276 0.0 0 CFG=2
M  V30 7 C -2.942 -1.0391 0.0 0
M  V30 8 C -2.4412 -2.9545 0.0 0 CFG=2
M  V30 9 C -4.0437 -2.9921 0.0 0
M  V30 10 C -1.6901 -4.0187 0.0 0
M  V30 11 C -4.8199 -4.219 0.0 0
M  V30 12 C -6.4224 -4.2565 0.0 0
M  V30 13 C -7.3864 -2.942 0.0 0
M  V30 14 C -8.9889 -2.9796 0.0 0
M  V30 15 C -6.8606 -1.4647 0.0 0
M  V30 END ATOM
M  V30 BEGIN BOND
M  V30 1 2 1 2
M  V30 2 1 3 1 CFG=3
M  V30 3 1 1 4
M  V30 4 1 2 5
M  V30 5 1 3 6
M  V30 6 1 3 7
M  V30 7 1 6 8
M  V30 8 1 8 9
M  V30 9 1 8 10 CFG=1
M  V30 10 1 9 11
M  V30 11 1 11 12
M  V30 12 2 12 13
M  V30 13 1 13 14
M  V30 14 1 13 15
M  V30 15 1 6 5 CFG=3
M  V30 16 1 6 7
M  V30 END BOND
M  V30 BEGIN COLLECTION
M  V30 MDLV30/STERAC1 ATOMS=(3 3 6 8)
M  V30 END COLLECTION
M  V30 END CTAB
M  END
>  <Molecule Name>
7-epi-sesquithujene

>  <Molecule Name 2>
7-epi-sesquithujene

>  <Database>
Essential Oil Database

>  <InChI>
InChI=1S/C15H24/c1-11(2)6-5-7-13(4)15-9-8-12(3)14(15)10-15/h6,8,13-14H,5,7,9-10H2,1-4H3/t13-,14+,15+/m0/s1

>  <InChI-Key>
UCQHFDKBUHCAFR-RRFJBIMHSA-N

>  <Smiles>
C[C@@H](CCC=C(C)C)[C@@]1(C2)[C@H]2C(C)=CC1

>  <Molecular Formula>
C15H24

$$$$
trans-muurola-4(14),5-diene
Actelion Java MolfileCreator 2.0

  0  0  0  0  0  0              0 V3000
M  V30 BEGIN CTAB
M  V30 COUNTS 15 16 0 0 0
M  V30 BEGIN ATOM
M  V30 1 C 0.0 0.0 0.0 0
M  V30 2 C 1.1512 -0.6831 0.0 0
M  V30 3 C -0.1265 1.6193 0.0 0
M  V30 4 C -1.4042 -0.6831 0.0 0 CFG=2
M  V30 5 C 2.3024 0.1391 0.0 0
M  V30 6 C -1.5307 2.4416 0.0 0 CFG=1
M  V30 7 C 1.0247 2.4416 0.0 0
M  V30 8 C -1.5307 -2.0494 0.0 0
M  V30 9 C -2.8085 0.1391 0.0 0
M  V30 10 C 3.4537 -0.5439 0.0 0
M  V30 11 C 2.1759 1.7584 0.0 0
M  V30 12 C -2.935 1.7711 0.0 0
M  V30 13 C -1.6572 4.0609 0.0 0
M  V30 14 C -0.3795 -2.7326 0.0 0
M  V30 15 C -2.935 -2.7326 0.0 0
M  V30 END ATOM
M  V30 BEGIN BOND
M  V30 1 2 1 2
M  V30 2 1 1 3
M  V30 3 1 1 4
M  V30 4 1 2 5
M  V30 5 1 3 6
M  V30 6 1 3 7
M  V30 7 1 4 8 CFG=3
M  V30 8 1 4 9
M  V30 9 2 5 10
M  V30 10 1 5 11
M  V30 11 1 6 12
M  V30 12 1 6 13 CFG=1
M  V30 13 1 8 14
M  V30 14 1 8 15
M  V30 15 1 7 11
M  V30 16 1 9 12
M  V30 END BOND
M  V30 BEGIN COLLECTION
M  V30 MDLV30/STERAC1 ATOMS=(2 4 6)
M  V30 END COLLECTION
M  V30 END CTAB
M  END
>  <Molecule Name>
trans-muurola-4(14),5-diene

>  <Molecule Name 2>
trans-muurola-4(14),5-diene

>  <Database>
Essential Oil Database

>  <InChI>
InChI=1S/C15H24/c1-10(2)13-8-6-12(4)14-7-5-11(3)9-15(13)14/h9-10,12-14H,3,5-8H2,1-2,4H3/t12-,13+,14?/m1/s1

>  <InChI-Key>
RNDFUOKDULDZPR-AMIUJLCOSA-N

>  <Smiles>
CC(C)[C@H](CC[C@@H](C)C1CC2)C1=CC2=C

>  <Molecular Formula>
C15H24

$$$$
linalool anthranilate
Actelion Java MolfileCreator 2.0

  0  0  0  0  0  0              0 V3000
M  V30 BEGIN CTAB
M  V30 COUNTS 20 20 0 0 0
M  V30 BEGIN ATOM
M  V30 1 O 0.0 0.0 0.0 0
M  V30 2 C 1.1612 0.8166 0.0 0
M  V30 3 O 1.0336 2.45 0.0 0
M  V30 4 C 2.3224 0.1403 0.0 0
M  V30 5 C -0.3828 3.2794 0.0 0 CFG=2
M  V30 6 C 3.4836 0.9698 0.0 0
M  V30 7 C 2.1948 -1.2377 0.0 0
M  V30 8 C 0.2934 4.6959 0.0 0
M  V30 9 C -1.7992 4.1089 0.0 0
M  V30 10 C -1.2122 2.1182 0.0 0
M  V30 11 N 3.356 2.6031 0.0 0
M  V30 12 C 4.6448 0.2934 0.0 0
M  V30 13 C 3.356 -1.914 0.0 0
M  V30 14 C 1.6716 4.8235 0.0 0
M  V30 15 C -1.9268 5.7422 0.0 0
M  V30 16 C 4.5172 -1.0846 0.0 0
M  V30 17 C -3.3432 6.5717 0.0 0
M  V30 18 C -3.4709 8.2051 0.0 0
M  V30 19 C -4.8873 9.0345 0.0 0
M  V30 20 C -2.3096 9.0345 0.0 0
M  V30 END ATOM
M  V30 BEGIN BOND
M  V30 1 2 1 2
M  V30 2 1 2 3
M  V30 3 1 2 4
M  V30 4 1 3 5
M  V30 5 2 4 6
M  V30 6 1 4 7
M  V30 7 1 5 8
M  V30 8 1 5 9 CFG=1
M  V30 9 1 5 10
M  V30 10 1 6 11
M  V30 11 1 6 12
M  V30 12 2 7 13
M  V30 13 2 8 14
M  V30 14 1 9 15
M  V30 15 2 12 16
M  V30 16 1 15 17
M  V30 17 2 17 18
M  V30 18 1 18 19
M  V30 19 1 18 20
M  V30 20 1 13 16
M  V30 END BOND
M  V30 BEGIN COLLECTION
M  V30 MDLV30/STERAC1 ATOMS=(1 5)
M  V30 END COLLECTION
M  V30 END CTAB
M  END
>  <Molecule Name>
linalool anthranilate

>  <Molecule Name 2>
linalool anthranilate

>  <Database>
Essential Oil Database

>  <InChI>
InChI=1S/C17H23NO2/c1-5-17(4,12-8-9-13(2)3)20-16(19)14-10-6-7-11-15(14)18/h5-7,9-11H,1,8,12,18H2,2-4H3/t17-/m1/s1

>  <InChI-Key>
WHIJSULEEDNKPD-QGZVFWFLSA-N

>  <Smiles>
CC(CCC=C(C)C)(C=C)OC(c(cccc1)c1N)=O

>  <Molecular Formula>
C17H23NO2

$$$$
beta-sesquiphellandrene
Actelion Java MolfileCreator 2.0

  0  0  0  0  0  0              0 V3000
M  V30 BEGIN CTAB
M  V30 COUNTS 15 15 0 0 0
M  V30 BEGIN ATOM
M  V30 1 C 0.0 0.0 0.0 0
M  V30 2 C -1.3582 0.7831 0.0 0
M  V30 3 C -0.1223 -1.3215 0.0 0
M  V30 4 C 1.1135 0.7831 0.0 0
M  V30 5 C -1.4806 2.3494 0.0 0
M  V30 6 C 0.9911 2.3494 0.0 0
M  V30 7 C -0.3671 3.1326 0.0 0 CFG=1
M  V30 8 C -0.4894 4.6989 0.0 0 CFG=1
M  V30 9 C -1.8477 5.4942 0.0 0
M  V30 10 C 0.624 5.4942 0.0 0
M  V30 11 C -1.9701 7.0605 0.0 0
M  V30 12 C -3.3283 7.8559 0.0 0
M  V30 13 C -3.4507 9.4222 0.0 0
M  V30 14 C -4.809 10.2176 0.0 0
M  V30 15 C -2.3372 10.2176 0.0 0
M  V30 END ATOM
M  V30 BEGIN BOND
M  V30 1 1 1 2
M  V30 2 2 1 3
M  V30 3 1 1 4
M  V30 4 2 2 5
M  V30 5 1 4 6
M  V30 6 1 7 5 CFG=3
M  V30 7 1 7 8
M  V30 8 1 8 9
M  V30 9 1 8 10 CFG=1
M  V30 10 1 9 11
M  V30 11 1 11 12
M  V30 12 2 12 13
M  V30 13 1 13 14
M  V30 14 1 13 15
M  V30 15 1 6 7
M  V30 END BOND
M  V30 BEGIN COLLECTION
M  V30 MDLV30/STERAC1 ATOMS=(2 7 8)
M  V30 END COLLECTION
M  V30 END CTAB
M  END
>  <Molecule Name>
beta-sesquiphellandrene

>  <Molecule Name 2>
beta-sesquiphellandrene

>  <Database>
Essential Oil Database

>  <InChI>
InChI=1S/C15H24/c1-12(2)6-5-7-14(4)15-10-8-13(3)9-11-15/h6,8,10,14-15H,3,5,7,9,11H2,1-2,4H3/t14-,15+/m1/s1

>  <InChI-Key>
PHWISBHSBNDZDX-CABCVRRESA-N

>  <Smiles>
C[C@H](CCC=C(C)C)[C@H](CC1)C=CC1=C

>  <Molecular Formula>
C15H24

$$$$
alpha-fenchol
Actelion Java MolfileCreator 2.0

  0  0  0  0  0  0              0 V3000
M  V30 BEGIN CTAB
M  V30 COUNTS 11 12 0 0 0
M  V30 BEGIN ATOM
M  V30 1 O 0.0 0.0 0.0 0
M  V30 2 C 1.2007 -0.6993 0.0 0 CFG=1
M  V30 3 C 2.4015 0.1451 0.0 0 CFG=2
M  V30 4 C 1.0688 -2.1244 0.0 0
M  V30 5 C 1.8473 -1.2799 0.0 0
M  V30 6 C 3.6023 -0.5542 0.0 0
M  V30 7 C 2.2696 1.8341 0.0 0
M  V30 8 C 2.2696 -2.8238 0.0 0 CFG=1
M  V30 9 C 0.3694 -3.444 0.0 0
M  V30 10 C -0.5937 -1.7022 0.0 0
M  V30 11 C 3.4704 -1.9793 0.0 0
M  V30 END ATOM
M  V30 BEGIN BOND
M  V30 1 1 2 1 CFG=1
M  V30 2 1 2 3
M  V30 3 1 2 4
M  V30 4 1 3 5
M  V30 5 1 3 6
M  V30 6 1 3 7 CFG=3
M  V30 7 1 4 8
M  V30 8 1 4 9
M  V30 9 1 4 10
M  V30 10 1 6 11
M  V30 11 1 8 5 CFG=3
M  V30 12 1 8 11
M  V30 END BOND
M  V30 BEGIN COLLECTION
M  V30 MDLV30/STERAC1 ATOMS=(3 2 3 8)
M  V30 END COLLECTION
M  V30 END CTAB
M  END
>  <Molecule Name>
alpha-fenchol

>  <Molecule Name 2>
alpha-fenchol

>  <Database>
Essential Oil Database

>  <InChI>
InChI=1S/C10H18O/c1-9(2)7-4-5-10(3,6-7)8(9)11/h7-8,11H,4-6H2,1-3H3/t7-,8-,10+/m1/s1

>  <InChI-Key>
IAIHUHQCLTYTSF-MRTMQBJTSA-N

>  <Smiles>
CC(C)([C@H]1C[C@]2(C)CC1)[C@H]2O

>  <Molecular Formula>
C10H18O

$$$$
carotol
Actelion Java MolfileCreator 2.0

  0  0  0  0  0  0              0 V3000
M  V30 BEGIN CTAB
M  V30 COUNTS 16 17 0 0 0
M  V30 BEGIN ATOM
M  V30 1 O 0.0 0.0 0.0 0
M  V30 2 C 0.1651 1.6002 0.0 0 CFG=2
M  V30 3 C 0.0381 3.2258 0.0 0 CFG=1
M  V30 4 C -1.3843 1.2319 0.0 0 CFG=1
M  V30 5 C 1.1811 0.8255 0.0 0
M  V30 6 C 1.0541 4.2418 0.0 0
M  V30 7 C -1.5113 3.8481 0.0 0
M  V30 8 C -0.381 4.826 0.0 0
M  V30 9 C -2.0066 -0.0635 0.0 0
M  V30 10 C -2.3495 2.5527 0.0 0
M  V30 11 C 2.5146 1.3081 0.0 0
M  V30 12 C 2.3876 4.0132 0.0 0
M  V30 13 C -3.5941 -0.2667 0.0 0
M  V30 14 C -1.1684 -1.016 0.0 0
M  V30 15 C 3.0861 2.7686 0.0 0
M  V30 16 C 4.4577 2.8956 0.0 0
M  V30 END ATOM
M  V30 BEGIN BOND
M  V30 1 1 2 1 CFG=1
M  V30 2 1 2 3
M  V30 3 1 2 4
M  V30 4 1 2 5
M  V30 5 1 3 6
M  V30 6 1 3 7
M  V30 7 1 3 8 CFG=1
M  V30 8 1 4 9 CFG=1
M  V30 9 1 4 10
M  V30 10 1 5 11
M  V30 11 1 6 12
M  V30 12 1 9 13
M  V30 13 1 9 14
M  V30 14 1 11 15
M  V30 15 1 15 16
M  V30 16 1 7 10
M  V30 17 2 12 15
M  V30 END BOND
M  V30 BEGIN COLLECTION
M  V30 MDLV30/STERAC1 ATOMS=(3 2 3 4)
M  V30 END COLLECTION
M  V30 END CTAB
M  END
>  <Molecule Name>
carotol

>  <Molecule Name 2>
carotol

>  <Database>
Essential Oil Database

>  <InChI>
InChI=1S/C15H26O/c1-11(2)13-7-9-14(4)8-5-12(3)6-10-15(13,14)16/h5,11,13,16H,6-10H2,1-4H3/t13-,14+,15+/m1/s1

>  <InChI-Key>
XZYQCFABZDVOPN-ILXRZTDVSA-N

>  <Smiles>
CC(C)[C@@H](CC[C@]1(C)CC=C(C)CC2)[C@]12O

>  <Molecular Formula>
C15H26O

$$$$
beta-guaiene
Actelion Java MolfileCreator 2.0

  0  0  0  0  0  0              0 V3000
M  V30 BEGIN CTAB
M  V30 COUNTS 15 16 0 0 0
M  V30 BEGIN ATOM
M  V30 1 C 0.0 0.0 0.0 0
M  V30 2 C 0.7715 1.2615 0.0 0
M  V30 3 C -1.5676 0.4654 0.0 0
M  V30 4 C 0.5511 -1.2002 0.0 0
M  V30 5 C 2.1188 1.1512 0.0 0
M  V30 6 C 0.0857 2.7557 0.0 0
M  V30 7 C -2.8291 -0.3061 0.0 0
M  V30 8 C -0.2204 -2.4005 0.0 0
M  V30 9 C -2.9516 -1.6656 0.0 0
M  V30 10 C -4.3601 0.2939 0.0 0 CFG=2
M  V30 11 C -1.7881 -2.6209 0.0 0 CFG=1
M  V30 12 C -4.4826 -2.0208 0.0 0
M  V30 13 C -5.3277 -0.7715 0.0 0
M  V30 14 C -4.9602 1.8248 0.0 0
M  V30 15 C -2.2535 -3.9437 0.0 0
M  V30 END ATOM
M  V30 BEGIN BOND
M  V30 1 2 1 2
M  V30 2 1 1 3
M  V30 3 1 1 4
M  V30 4 1 2 5
M  V30 5 1 2 6
M  V30 6 1 3 7
M  V30 7 1 4 8
M  V30 8 2 7 9
M  V30 9 1 7 10
M  V30 10 1 8 11
M  V30 11 1 9 12
M  V30 12 1 10 13
M  V30 13 1 10 14 CFG=3
M  V30 14 1 11 15 CFG=3
M  V30 15 1 9 11
M  V30 16 1 12 13
M  V30 END BOND
M  V30 BEGIN COLLECTION
M  V30 MDLV30/STERAC1 ATOMS=(2 10 11)
M  V30 END COLLECTION
M  V30 END CTAB
M  END
>  <Molecule Name>
beta-guaiene

>  <Molecule Name 2>
beta-guaiene

>  <Database>
Essential Oil Database

>  <InChI>
InChI=1S/C15H24/c1-10(2)13-7-5-11(3)14-8-6-12(4)15(14)9-13/h11-12H,5-9H2,1-4H3/t11-,12-/m0/s1

>  <InChI-Key>
GIBQERSGRNPMEH-RYUDHWBXSA-N

>  <Smiles>
C[C@@H](CC1)C(C2)=C1[C@@H](C)CCC2=C(C)C

>  <Molecular Formula>
C15H24

$$$$
1-octene
Actelion Java MolfileCreator 2.0

  0  0  0  0  0  0              0 V3000
M  V30 BEGIN CTAB
M  V30 COUNTS 8 7 0 0 0
M  V30 BEGIN ATOM
M  V30 1 C 0.0 0.0 0.0 0
M  V30 2 C -1.4901 -0.6868 0.0 0
M  V30 3 C 1.2572 -0.6868 0.0 0
M  V30 4 C 2.5145 0.1746 0.0 0
M  V30 5 C 3.7718 -0.5005 0.0 0
M  V30 6 C 5.0291 0.3608 0.0 0
M  V30 7 C 6.2864 -0.3143 0.0 0
M  V30 8 C 7.5436 0.5471 0.0 0
M  V30 END ATOM
M  V30 BEGIN BOND
M  V30 1 2 1 2
M  V30 2 1 1 3
M  V30 3 1 3 4
M  V30 4 1 4 5
M  V30 5 1 5 6
M  V30 6 1 6 7
M  V30 7 1 7 8
M  V30 END BOND
M  V30 END CTAB
M  END
>  <Molecule Name>
1-octene

>  <Molecule Name 2>
1-octene

>  <Database>
Essential Oil Database

>  <InChI>
InChI=1S/C8H16/c1-3-5-7-8-6-4-2/h3H,1,4-8H2,2H3

>  <InChI-Key>
KWKAKUADMBZCLK-UHFFFAOYSA-N

>  <Smiles>
CCCCCCC=C

>  <Molecular Formula>
C8H16

$$$$
2-butylfuran
Actelion Java MolfileCreator 2.0

  0  0  0  0  0  0              0 V3000
M  V30 BEGIN CTAB
M  V30 COUNTS 9 9 0 0 0
M  V30 BEGIN ATOM
M  V30 1 O 0.0 0.0 0.0 0
M  V30 2 C 1.0719 0.9698 0.0 0
M  V30 3 C 0.37 -1.3016 0.0 0
M  V30 4 C 2.1438 0.2041 0.0 0
M  V30 5 C 0.9443 2.6032 0.0 0
M  V30 6 C 1.7482 -1.1739 0.0 0
M  V30 7 C -0.4721 3.4454 0.0 0
M  V30 8 C -0.5997 5.0788 0.0 0
M  V30 9 C -2.0162 5.9082 0.0 0
M  V30 END ATOM
M  V30 BEGIN BOND
M  V30 1 1 1 2
M  V30 2 1 1 3
M  V30 3 2 2 4
M  V30 4 1 2 5
M  V30 5 2 3 6
M  V30 6 1 5 7
M  V30 7 1 7 8
M  V30 8 1 8 9
M  V30 9 1 4 6
M  V30 END BOND
M  V30 END CTAB
M  END
>  <Molecule Name>
2-butylfuran

>  <Molecule Name 2>
2-butylfuran

>  <Database>
Essential Oil Database

>  <InChI>
InChI=1S/C8H12O/c1-2-3-5-8-6-4-7-9-8/h4,6-7H,2-3,5H2,1H3

>  <InChI-Key>
NWZIYQNUCXUJJJ-UHFFFAOYSA-N

>  <Smiles>
CCCCc1ccc[o]1

>  <Molecular Formula>
C8H12O

$$$$
2-ethylfuran
Actelion Java MolfileCreator 2.0

  0  0  0  0  0  0              0 V3000
M  V30 BEGIN CTAB
M  V30 COUNTS 7 7 0 0 0
M  V30 BEGIN ATOM
M  V30 1 O 0.0 0.0 0.0 0
M  V30 2 C 1.1019 0.997 0.0 0
M  V30 3 C 0.3804 -1.338 0.0 0
M  V30 4 C 2.2039 0.2098 0.0 0
M  V30 5 C 0.9707 2.6761 0.0 0
M  V30 6 C 1.7972 -1.2069 0.0 0
M  V30 7 C -0.4853 3.5288 0.0 0
M  V30 END ATOM
M  V30 BEGIN BOND
M  V30 1 1 1 2
M  V30 2 1 1 3
M  V30 3 2 2 4
M  V30 4 1 2 5
M  V30 5 2 3 6
M  V30 6 1 5 7
M  V30 7 1 4 6
M  V30 END BOND
M  V30 END CTAB
M  END
>  <Molecule Name>
2-ethylfuran

>  <Molecule Name 2>
2-ethylfuran

>  <Database>
Essential Oil Database

>  <InChI>
InChI=1S/C6H8O/c1-2-6-4-3-5-7-6/h3-5H,2H2,1H3

>  <InChI-Key>
HLPIHRDZBHXTFJ-UHFFFAOYSA-N

>  <Smiles>
CCc1ccc[o]1

>  <Molecular Formula>
C6H8O

$$$$
3-methyloctane
Actelion Java MolfileCreator 2.0

  0  0  0  0  0  0              0 V3000
M  V30 BEGIN CTAB
M  V30 COUNTS 9 8 0 0 0
M  V30 BEGIN ATOM
M  V30 1 C 0.0 0.0 0.0 0 CFG=2
M  V30 2 C 1.2153 0.9227 0.0 0
M  V30 3 C -1.4404 0.9227 0.0 0
M  V30 4 C -0.1125 -1.4066 0.0 0
M  V30 5 C 2.4307 0.2925 0.0 0
M  V30 6 C -2.8808 0.2925 0.0 0
M  V30 7 C 3.6461 1.2153 0.0 0
M  V30 8 C 4.8615 0.6076 0.0 0
M  V30 9 C 6.0768 1.5304 0.0 0
M  V30 END ATOM
M  V30 BEGIN BOND
M  V30 1 1 1 2
M  V30 2 1 1 3
M  V30 3 1 1 4 CFG=1
M  V30 4 1 2 5
M  V30 5 1 3 6
M  V30 6 1 5 7
M  V30 7 1 7 8
M  V30 8 1 8 9
M  V30 END BOND
M  V30 BEGIN COLLECTION
M  V30 MDLV30/STERAC1 ATOMS=(1 1)
M  V30 END COLLECTION
M  V30 END CTAB
M  END
>  <Molecule Name>
3-methyloctane

>  <Molecule Name 2>
3-methyloctane

>  <Database>
Essential Oil Database

>  <InChI>
InChI=1S/C9H20/c1-4-6-7-8-9(3)5-2/h9H,4-8H2,1-3H3/t9-/m0/s1

>  <InChI-Key>
SEEOMASXHIJCDV-VIFPVBQESA-N

>  <Smiles>
CCCCCC(C)CC

>  <Molecular Formula>
C9H20

$$$$
3-octen-2-one
Actelion Java MolfileCreator 2.0

  0  0  0  0  0  0              0 V3000
M  V30 BEGIN CTAB
M  V30 COUNTS 9 8 0 0 0
M  V30 BEGIN ATOM
M  V30 1 O 0.0 0.0 0.0 0
M  V30 2 C 0.7164 -1.2301 0.0 0
M  V30 3 C -0.1487 -2.4603 0.0 0
M  V30 4 C 2.1764 -1.0949 0.0 0
M  V30 5 C -1.879 -2.3251 0.0 0
M  V30 6 C -2.7577 -3.5552 0.0 0
M  V30 7 C -2.0412 -4.7854 0.0 0
M  V30 8 C -2.9199 -6.0156 0.0 0
M  V30 9 C -2.2034 -7.2457 0.0 0
M  V30 END ATOM
M  V30 BEGIN BOND
M  V30 1 2 1 2
M  V30 2 1 2 3
M  V30 3 1 2 4
M  V30 4 2 3 5
M  V30 5 1 5 6
M  V30 6 1 6 7
M  V30 7 1 7 8
M  V30 8 1 8 9
M  V30 END BOND
M  V30 END CTAB
M  END
>  <Molecule Name>
3-octen-2-one

>  <Molecule Name 2>
3-octen-2-one

>  <Database>
Essential Oil Database

>  <InChI>
InChI=1S/C8H14O/c1-3-4-5-6-7-8(2)9/h6-7H,3-5H2,1-2H3/b7-6+

>  <InChI-Key>
ZCFOBLITZWHNNC-VOTSOKGWSA-N

>  <Smiles>
CCCC/C=C/C(C)=O

>  <Molecular Formula>
C8H14O

$$$$
but-2-enal
Actelion Java MolfileCreator 2.0

  0  0  0  0  0  0              0 V3000
M  V30 BEGIN CTAB
M  V30 COUNTS 5 4 0 0 0
M  V30 BEGIN ATOM
M  V30 1 O 0.0 0.0 0.0 0
M  V30 2 C 0.6961 -1.1953 0.0 0
M  V30 3 C -0.1444 -2.3906 0.0 0
M  V30 4 C -1.8258 -2.2592 0.0 0
M  V30 5 C -2.6796 -3.4546 0.0 0
M  V30 END ATOM
M  V30 BEGIN BOND
M  V30 1 2 1 2
M  V30 2 1 2 3
M  V30 3 2 3 4
M  V30 4 1 4 5
M  V30 END BOND
M  V30 END CTAB
M  END
>  <Molecule Name>
but-2-enal

>  <Molecule Name 2>
but-2-enal

>  <Database>
Essential Oil Database

>  <InChI>
InChI=1S/C4H6O/c1-2-3-4-5/h2-4H,1H3/b3-2+

>  <InChI-Key>
MLUCVPSAIODCQM-NSCUHMNNSA-N

>  <Smiles>
C/C=C/C=O

>  <Molecular Formula>
C4H6O

$$$$
butanol
Actelion Java MolfileCreator 2.0

  0  0  0  0  0  0              0 V3000
M  V30 BEGIN CTAB
M  V30 COUNTS 5 4 0 0 0
M  V30 BEGIN ATOM
M  V30 1 O 0.0 0.0 0.0 0
M  V30 2 C 1.5266 0.1211 0.0 0
M  V30 3 C 2.1688 -1.1995 0.0 0
M  V30 4 C 3.6954 -1.0783 0.0 0
M  V30 5 C 4.3376 -2.399 0.0 0
M  V30 END ATOM
M  V30 BEGIN BOND
M  V30 1 1 1 2
M  V30 2 1 2 3
M  V30 3 1 3 4
M  V30 4 1 4 5
M  V30 END BOND
M  V30 END CTAB
M  END
>  <Molecule Name>
butanol

>  <Molecule Name 2>
butanol

>  <Database>
Essential Oil Database

>  <InChI>
InChI=1S/C4H10O/c1-2-3-4-5/h5H,2-4H2,1H3

>  <InChI-Key>
LRHPLDYGYMQRHN-UHFFFAOYSA-N

>  <Smiles>
CCCCO

>  <Molecular Formula>
C4H10O

$$$$
butyl cyclohexane
Actelion Java MolfileCreator 2.0

  0  0  0  0  0  0              0 V3000
M  V30 BEGIN CTAB
M  V30 COUNTS 10 10 0 0 0
M  V30 BEGIN ATOM
M  V30 1 C 0.0 0.0 0.0 0
M  V30 2 C 1.1498 -0.6697 0.0 0
M  V30 3 C -1.4025 -0.6697 0.0 0
M  V30 4 C -0.1263 1.6174 0.0 0
M  V30 5 C 1.0235 -2.0343 0.0 0
M  V30 6 C -1.5289 -2.0343 0.0 0
M  V30 7 C -1.5289 2.4261 0.0 0
M  V30 8 C -0.379 -2.704 0.0 0
M  V30 9 C -1.6553 4.0435 0.0 0
M  V30 10 C -3.0578 4.8648 0.0 0
M  V30 END ATOM
M  V30 BEGIN BOND
M  V30 1 1 1 2
M  V30 2 1 1 3
M  V30 3 1 1 4
M  V30 4 1 2 5
M  V30 5 1 3 6
M  V30 6 1 4 7
M  V30 7 1 5 8
M  V30 8 1 7 9
M  V30 9 1 9 10
M  V30 10 1 6 8
M  V30 END BOND
M  V30 END CTAB
M  END
>  <Molecule Name>
butyl cyclohexane

>  <Molecule Name 2>
butyl cyclohexane

>  <Database>
Essential Oil Database

>  <InChI>
InChI=1S/C10H20/c1-2-3-7-10-8-5-4-6-9-10/h10H,2-9H2,1H3

>  <InChI-Key>
GGBJHURWWWLEQH-UHFFFAOYSA-N

>  <Smiles>
CCCCC1CCCCC1

>  <Molecular Formula>
C10H20

$$$$
decahydronaphthalene
Actelion Java MolfileCreator 2.0

  0  0  0  0  0  0              0 V3000
M  V30 BEGIN CTAB
M  V30 COUNTS 10 11 0 0 0
M  V30 BEGIN ATOM
M  V30 1 C 0.0 0.0 0.0 0
M  V30 2 C -0.1245 1.5944 0.0 0
M  V30 3 C -1.3826 -0.6726 0.0 0
M  V30 4 C 1.1335 -0.6726 0.0 0
M  V30 5 C -1.5072 2.4041 0.0 0
M  V30 6 C 1.0089 2.4041 0.0 0
M  V30 7 C -2.7653 0.137 0.0 0
M  V30 8 C 2.267 0.137 0.0 0
M  V30 9 C -2.8899 1.7314 0.0 0
M  V30 10 C 2.1425 1.7314 0.0 0
M  V30 END ATOM
M  V30 BEGIN BOND
M  V30 1 1 1 2
M  V30 2 1 1 3
M  V30 3 1 1 4
M  V30 4 1 2 5
M  V30 5 1 2 6
M  V30 6 1 3 7
M  V30 7 1 4 8
M  V30 8 1 5 9
M  V30 9 1 6 10
M  V30 10 1 7 9
M  V30 11 1 8 10
M  V30 END BOND
M  V30 END CTAB
M  END
>  <Molecule Name>
decahydronaphthalene

>  <Molecule Name 2>
decahydronaphthalene

>  <Database>
Essential Oil Database

>  <InChI>
InChI=1S/C10H18/c1-2-6-10-8-4-3-7-9(10)5-1/h9-10H,1-8H2

>  <InChI-Key>
NNBZCPXTIHJBJL-UHFFFAOYSA-N

>  <Smiles>
C(CC1)CC2C1CCCC2

>  <Molecular Formula>
C10H18

$$$$
(e)-oct-3-enal
Actelion Java MolfileCreator 2.0

  0  0  0  0  0  0              0 V3000
M  V30 BEGIN CTAB
M  V30 COUNTS 9 8 0 0 0
M  V30 BEGIN ATOM
M  V30 1 O 0.0 0.0 0.0 0
M  V30 2 C -0.7997 -1.1371 0.0 0
M  V30 3 C -2.3992 -1.0121 0.0 0
M  V30 4 C -3.2114 -2.1493 0.0 0
M  V30 5 C -4.8109 -2.0243 0.0 0
M  V30 6 C -5.6232 -3.1615 0.0 0
M  V30 7 C -7.2227 -3.0365 0.0 0
M  V30 8 C -8.0349 -4.1736 0.0 0
M  V30 9 C -9.6344 -4.0487 0.0 0
M  V30 END ATOM
M  V30 BEGIN BOND
M  V30 1 2 1 2
M  V30 2 1 2 3
M  V30 3 1 3 4
M  V30 4 2 4 5
M  V30 5 1 5 6
M  V30 6 1 6 7
M  V30 7 1 7 8
M  V30 8 1 8 9
M  V30 END BOND
M  V30 END CTAB
M  END
>  <Molecule Name>
(e)-oct-3-enal

>  <Molecule Name 2>
(e)-oct-3-enal

>  <Database>
Essential Oil Database

>  <InChI>
InChI=1S/C8H14O/c1-2-3-4-5-6-7-8-9/h5-6,8H,2-4,7H2,1H3/b6-5+

>  <InChI-Key>
WDWAUVJQFVTKEW-AATRIKPKSA-N

>  <Smiles>
CCCC/C=C/CC=O

>  <Molecular Formula>
C8H14O

$$$$
gamma-butyrolactone
Actelion Java MolfileCreator 2.0

  0  0  0  0  0  0              0 V3000
M  V30 BEGIN CTAB
M  V30 COUNTS 6 6 0 0 0
M  V30 BEGIN ATOM
M  V30 1 O 0.0 0.0 0.0 0
M  V30 2 C -0.1133 -1.4278 0.0 0
M  V30 3 O -1.4958 -2.2665 0.0 0
M  V30 4 C 1.0425 -2.2665 0.0 0
M  V30 5 C -1.1672 -3.6264 0.0 0
M  V30 6 C 0.4872 -3.6264 0.0 0
M  V30 END ATOM
M  V30 BEGIN BOND
M  V30 1 2 1 2
M  V30 2 1 2 3
M  V30 3 1 2 4
M  V30 4 1 3 5
M  V30 5 1 4 6
M  V30 6 1 5 6
M  V30 END BOND
M  V30 END CTAB
M  END
>  <Molecule Name>
gamma-butyrolactone

>  <Molecule Name 2>
gamma-butyrolactone

>  <Database>
Essential Oil Database

>  <InChI>
InChI=1S/C4H6O2/c5-4-2-1-3-6-4/h1-3H2

>  <InChI-Key>
YEJRWHAVMIAJKC-UHFFFAOYSA-N

>  <Smiles>
O=C1OCCC1

>  <Molecular Formula>
C4H6O2

$$$$
heptan-2-ol
Actelion Java MolfileCreator 2.0

  0  0  0  0  0  0              0 V3000
M  V30 BEGIN CTAB
M  V30 COUNTS 8 7 0 0 0
M  V30 BEGIN ATOM
M  V30 1 O 0.0 0.0 0.0 0
M  V30 2 C -0.1305 1.6713 0.0 0 CFG=2
M  V30 3 C 1.0576 2.52 0.0 0
M  V30 4 C -1.5799 2.52 0.0 0
M  V30 5 C 2.2458 1.8149 0.0 0
M  V30 6 C 3.434 2.6637 0.0 0
M  V30 7 C 4.6223 1.9586 0.0 0
M  V30 8 C 5.8105 2.8073 0.0 0
M  V30 END ATOM
M  V30 BEGIN BOND
M  V30 1 1 2 1 CFG=1
M  V30 2 1 2 3
M  V30 3 1 2 4
M  V30 4 1 3 5
M  V30 5 1 5 6
M  V30 6 1 6 7
M  V30 7 1 7 8
M  V30 END BOND
M  V30 BEGIN COLLECTION
M  V30 MDLV30/STERAC1 ATOMS=(1 2)
M  V30 END COLLECTION
M  V30 END CTAB
M  END
>  <Molecule Name>
heptan-2-ol

>  <Molecule Name 2>
heptan-2-ol

>  <Database>
Essential Oil Database

>  <InChI>
InChI=1S/C7H16O/c1-3-4-5-6-7(2)8/h7-8H,3-6H2,1-2H3/t7-/m0/s1

>  <InChI-Key>
CETWDUZRCINIHU-ZETCQYMHSA-N

>  <Smiles>
CCCCCC(C)O

>  <Molecular Formula>
C7H16O

$$$$
n-heptane
Actelion Java MolfileCreator 2.0

  0  0  0  0  0  0              0 V3000
M  V30 BEGIN CTAB
M  V30 COUNTS 7 6 0 0 0
M  V30 BEGIN ATOM
M  V30 1 C 0.0 0.0 0.0 0
M  V30 2 C -1.4022 0.8106 0.0 0
M  V30 3 C 1.1831 0.8106 0.0 0
M  V30 4 C -2.8044 0.1643 0.0 0
M  V30 5 C 2.3662 0.1643 0.0 0
M  V30 6 C -4.2066 0.9749 0.0 0
M  V30 7 C 3.5493 0.9749 0.0 0
M  V30 END ATOM
M  V30 BEGIN BOND
M  V30 1 1 1 2
M  V30 2 1 1 3
M  V30 3 1 2 4
M  V30 4 1 3 5
M  V30 5 1 4 6
M  V30 6 1 5 7
M  V30 END BOND
M  V30 END CTAB
M  END
>  <Molecule Name>
n-heptane

>  <Molecule Name 2>
n-heptane

>  <Database>
Essential Oil Database

>  <InChI>
InChI=1S/C7H16/c1-3-5-7-6-4-2/h3-7H2,1-2H3

>  <InChI-Key>
IMNFDUFMRHMDMM-UHFFFAOYSA-N

>  <Smiles>
CCCCCCC

>  <Molecular Formula>
C7H16

$$$$
pentan-2-ol
Actelion Java MolfileCreator 2.0

  0  0  0  0  0  0              0 V3000
M  V30 BEGIN CTAB
M  V30 COUNTS 6 5 0 0 0
M  V30 BEGIN ATOM
M  V30 1 O 0.0 0.0 0.0 0
M  V30 2 C 1.4658 0.1172 0.0 0 CFG=2
M  V30 3 C 2.0874 -1.1492 0.0 0
M  V30 4 C 2.0874 1.6183 0.0 0
M  V30 5 C 1.1375 -2.4157 0.0 0
M  V30 6 C 1.759 -3.6823 0.0 0
M  V30 END ATOM
M  V30 BEGIN BOND
M  V30 1 1 2 1 CFG=1
M  V30 2 1 2 3
M  V30 3 1 2 4
M  V30 4 1 3 5
M  V30 5 1 5 6
M  V30 END BOND
M  V30 BEGIN COLLECTION
M  V30 MDLV30/STERAC1 ATOMS=(1 2)
M  V30 END COLLECTION
M  V30 END CTAB
M  END
>  <Molecule Name>
pentan-2-ol

>  <Molecule Name 2>
pentan-2-ol

>  <Database>
Essential Oil Database

>  <InChI>
InChI=1S/C5H12O/c1-3-4-5(2)6/h5-6H,3-4H2,1-2H3/t5-/m0/s1

>  <InChI-Key>
JYVLIDXNZAXMDK-YFKPBYRVSA-N

>  <Smiles>
CCCC(C)O

>  <Molecular Formula>
C5H12O

$$$$
pentane-2,3-dione
Actelion Java MolfileCreator 2.0

  0  0  0  0  0  0              0 V3000
M  V30 BEGIN CTAB
M  V30 COUNTS 7 6 0 0 0
M  V30 BEGIN ATOM
M  V30 1 O 0.0 0.0 0.0 0
M  V30 2 C 1.4131 0.113 0.0 0
M  V30 3 C 2.0122 -1.1078 0.0 0
M  V30 4 C 2.0122 1.56 0.0 0
M  V30 5 O 3.4253 -0.9948 0.0 0
M  V30 6 C 1.0965 -2.3288 0.0 0
M  V30 7 C 1.0965 3.007 0.0 0
M  V30 END ATOM
M  V30 BEGIN BOND
M  V30 1 2 1 2
M  V30 2 1 2 3
M  V30 3 1 2 4
M  V30 4 2 3 5
M  V30 5 1 3 6
M  V30 6 1 4 7
M  V30 END BOND
M  V30 END CTAB
M  END
>  <Molecule Name>
pentane-2,3-dione

>  <Molecule Name 2>
pentane-2,3-dione

>  <Database>
Essential Oil Database

>  <InChI>
InChI=1S/C5H8O2/c1-3-5(7)4(2)6/h3H2,1-2H3

>  <InChI-Key>
TZMFJUDUGYTVRY-UHFFFAOYSA-N

>  <Smiles>
CCC(C(C)=O)=O

>  <Molecular Formula>
C5H8O2

$$$$
pentyl cyclohexane
Actelion Java MolfileCreator 2.0

  0  0  0  0  0  0              0 V3000
M  V30 BEGIN CTAB
M  V30 COUNTS 11 11 0 0 0
M  V30 BEGIN ATOM
M  V30 1 C 0.0 0.0 0.0 0
M  V30 2 C -0.1111 -1.3896 0.0 0
M  V30 3 C -1.4229 0.9115 0.0 0
M  V30 4 C 1.2006 0.9115 0.0 0
M  V30 5 C -1.5341 -2.001 0.0 0
M  V30 6 C -2.8459 0.3112 0.0 0
M  V30 7 C 2.4012 0.3112 0.0 0
M  V30 8 C -2.9571 -1.0894 0.0 0
M  V30 9 C 3.6019 1.2228 0.0 0
M  V30 10 C 4.8025 0.578 0.0 0
M  V30 11 C 6.0032 1.4896 0.0 0
M  V30 END ATOM
M  V30 BEGIN BOND
M  V30 1 1 1 2
M  V30 2 1 1 3
M  V30 3 1 1 4
M  V30 4 1 2 5
M  V30 5 1 3 6
M  V30 6 1 4 7
M  V30 7 1 5 8
M  V30 8 1 7 9
M  V30 9 1 9 10
M  V30 10 1 10 11
M  V30 11 1 6 8
M  V30 END BOND
M  V30 END CTAB
M  END
>  <Molecule Name>
pentyl cyclohexane

>  <Molecule Name 2>
pentyl cyclohexane

>  <Database>
Essential Oil Database

>  <InChI>
InChI=1S/C11H22/c1-2-3-5-8-11-9-6-4-7-10-11/h11H,2-10H2,1H3

>  <InChI-Key>
HLTMUYBTNSVOFY-UHFFFAOYSA-N

>  <Smiles>
CCCCCC1CCCCC1

>  <Molecular Formula>
C11H22

$$$$
(z) hex-3-enylacetate
Actelion Java MolfileCreator 2.0

  0  0  0  0  0  0              0 V3000
M  V30 BEGIN CTAB
M  V30 COUNTS 10 9 0 0 0
M  V30 BEGIN ATOM
M  V30 1 O 0.0 0.0 0.0 0
M  V30 2 C -0.1293 1.6562 0.0 0
M  V30 3 O -1.5656 2.4972 0.0 0 CHG=-1
M  V30 4 C 1.048 2.4972 0.0 0
M  V30 5 C 2.2255 1.8114 0.0 0
M  V30 6 C 3.4029 2.6525 0.0 0
M  V30 7 C 4.5804 1.9667 0.0 0
M  V30 8 C 5.7578 2.8077 0.0 0
M  V30 9 C 5.6285 4.4639 0.0 0
M  V30 10 C 6.8059 5.305 0.0 0
M  V30 END ATOM
M  V30 BEGIN BOND
M  V30 1 2 1 2
M  V30 2 1 2 3
M  V30 3 1 2 4
M  V30 4 1 4 5
M  V30 5 1 5 6
M  V30 6 1 6 7
M  V30 7 2 7 8
M  V30 8 1 8 9
M  V30 9 1 9 10
M  V30 END BOND
M  V30 END CTAB
M  END
>  <Molecule Name>
(z) hex-3-enylacetate

>  <Molecule Name 2>
(z) hex-3-enylacetate

>  <Database>
Essential Oil Database

>  <InChI>
InChI=1S/C8H14O2/c1-2-3-4-5-6-7-8(9)10/h3-4H,2,5-7H2,1H3,(H,9,10)/p-1/b4-3-

>  <InChI-Key>
RRGOKSYVAZDNKR-ARJAWSKDSA-M

>  <Smiles>
CC/C=C\CCCC([O-])=O

>  <Molecular Formula>
C8H13O2

$$$$
2-heneicosanol
Actelion Java MolfileCreator 2.0

  0  0  0  0  0  0              0 V3000
M  V30 BEGIN CTAB
M  V30 COUNTS 22 21 0 0 0
M  V30 BEGIN ATOM
M  V30 1 O 0.0 0.0 0.0 0
M  V30 2 C -0.1354 1.7339 0.0 0 CFG=2
M  V30 3 C 1.0972 2.6279 0.0 0
M  V30 4 C -1.639 2.6279 0.0 0
M  V30 5 C 2.3299 1.91 0.0 0
M  V30 6 C 3.5626 2.804 0.0 0
M  V30 7 C 4.7953 2.0861 0.0 0
M  V30 8 C 6.028 2.9666 0.0 0
M  V30 9 C 7.2607 2.2486 0.0 0
M  V30 10 C 8.4935 3.1291 0.0 0
M  V30 11 C 9.7262 2.4112 0.0 0
M  V30 12 C 10.9589 3.2917 0.0 0
M  V30 13 C 12.1916 2.5737 0.0 0
M  V30 14 C 13.4243 3.4542 0.0 0
M  V30 15 C 14.657 2.7363 0.0 0
M  V30 16 C 15.8897 3.6168 0.0 0
M  V30 17 C 17.1224 2.8988 0.0 0
M  V30 18 C 18.3551 3.7794 0.0 0
M  V30 19 C 19.5878 3.0614 0.0 0
M  V30 20 C 20.8205 3.9419 0.0 0
M  V30 21 C 22.0533 3.224 0.0 0
M  V30 22 C 23.286 4.118 0.0 0
M  V30 END ATOM
M  V30 BEGIN BOND
M  V30 1 1 2 1 CFG=1
M  V30 2 1 2 3
M  V30 3 1 2 4
M  V30 4 1 3 5
M  V30 5 1 5 6
M  V30 6 1 6 7
M  V30 7 1 7 8
M  V30 8 1 8 9
M  V30 9 1 9 10
M  V30 10 1 10 11
M  V30 11 1 11 12
M  V30 12 1 12 13
M  V30 13 1 13 14
M  V30 14 1 14 15
M  V30 15 1 15 16
M  V30 16 1 16 17
M  V30 17 1 17 18
M  V30 18 1 18 19
M  V30 19 1 19 20
M  V30 20 1 20 21
M  V30 21 1 21 22
M  V30 END BOND
M  V30 BEGIN COLLECTION
M  V30 MDLV30/STERAC1 ATOMS=(1 2)
M  V30 END COLLECTION
M  V30 END CTAB
M  END
>  <Molecule Name>
2-heneicosanol

>  <Molecule Name 2>
2-heneicosanol

>  <Database>
Essential Oil Database

>  <InChI>
InChI=1S/C21H44O/c1-3-4-5-6-7-8-9-10-11-12-13-14-15-16-17-18-19-20-21(2)22/h21-22H,3-20H2,1-2H3/t21-/m0/s1

>  <InChI-Key>
ZWKMKPIPURRGEC-NRFANRHFSA-N

>  <Smiles>
CCCCCCCCCCCCCCCCCCCC(C)O

>  <Molecular Formula>
C21H44O

$$$$
2-nonadecanol
Actelion Java MolfileCreator 2.0

  0  0  0  0  0  0              0 V3000
M  V30 BEGIN CTAB
M  V30 COUNTS 20 19 0 0 0
M  V30 BEGIN ATOM
M  V30 1 O 0.0 0.0 0.0 0
M  V30 2 C -0.1349 1.7279 0.0 0 CFG=2
M  V30 3 C 1.0934 2.6054 0.0 0
M  V30 4 C -1.6334 2.6054 0.0 0
M  V30 5 C 2.3219 1.8764 0.0 0
M  V30 6 C 3.5503 2.7538 0.0 0
M  V30 7 C 4.7788 2.0249 0.0 0
M  V30 8 C 6.0072 2.9023 0.0 0
M  V30 9 C 7.2357 2.1734 0.0 0
M  V30 10 C 8.4641 3.0508 0.0 0
M  V30 11 C 9.6926 2.3219 0.0 0
M  V30 12 C 10.921 3.2128 0.0 0
M  V30 13 C 12.1495 2.4839 0.0 0
M  V30 14 C 13.378 3.3613 0.0 0
M  V30 15 C 14.6064 2.6324 0.0 0
M  V30 16 C 15.8349 3.5098 0.0 0
M  V30 17 C 17.0633 2.7808 0.0 0
M  V30 18 C 18.2918 3.6583 0.0 0
M  V30 19 C 19.5202 2.9293 0.0 0
M  V30 20 C 20.7487 3.8203 0.0 0
M  V30 END ATOM
M  V30 BEGIN BOND
M  V30 1 1 2 1 CFG=1
M  V30 2 1 2 3
M  V30 3 1 2 4
M  V30 4 1 3 5
M  V30 5 1 5 6
M  V30 6 1 6 7
M  V30 7 1 7 8
M  V30 8 1 8 9
M  V30 9 1 9 10
M  V30 10 1 10 11
M  V30 11 1 11 12
M  V30 12 1 12 13
M  V30 13 1 13 14
M  V30 14 1 14 15
M  V30 15 1 15 16
M  V30 16 1 16 17
M  V30 17 1 17 18
M  V30 18 1 18 19
M  V30 19 1 19 20
M  V30 END BOND
M  V30 BEGIN COLLECTION
M  V30 MDLV30/STERAC1 ATOMS=(1 2)
M  V30 END COLLECTION
M  V30 END CTAB
M  END
>  <Molecule Name>
2-nonadecanol

>  <Molecule Name 2>
2-nonadecanol

>  <Database>
Essential Oil Database

>  <InChI>
InChI=1S/C19H40O/c1-3-4-5-6-7-8-9-10-11-12-13-14-15-16-17-18-19(2)20/h19-20H,3-18H2,1-2H3/t19-/m0/s1

>  <InChI-Key>
QXYWIOWTBOREMG-IBGZPJMESA-N

>  <Smiles>
CCCCCCCCCCCCCCCCCC(C)O

>  <Molecular Formula>
C19H40O

$$$$
5-eicosene
Actelion Java MolfileCreator 2.0

  0  0  0  0  0  0              0 V3000
M  V30 BEGIN CTAB
M  V30 COUNTS 20 19 0 0 0
M  V30 BEGIN ATOM
M  V30 1 C 0.0 0.0 0.0 0
M  V30 2 C -0.1319 1.6889 0.0 0
M  V30 3 C 1.2007 -0.6993 0.0 0
M  V30 4 C -1.5965 2.5597 0.0 0
M  V30 5 C 2.4014 0.1451 0.0 0
M  V30 6 C -1.7285 4.2487 0.0 0
M  V30 7 C 3.6021 -0.5541 0.0 0
M  V30 8 C -3.1931 5.1195 0.0 0
M  V30 9 C 4.8028 0.2902 0.0 0
M  V30 10 C -3.325 6.8084 0.0 0
M  V30 11 C 6.0035 -0.409 0.0 0
M  V30 12 C 7.2043 0.4354 0.0 0
M  V30 13 C 8.405 -0.2638 0.0 0
M  V30 14 C 9.6057 0.5805 0.0 0
M  V30 15 C 10.8064 -0.1187 0.0 0
M  V30 16 C 12.0071 0.7257 0.0 0
M  V30 17 C 13.2079 0.0263 0.0 0
M  V30 18 C 14.4086 0.8708 0.0 0
M  V30 19 C 15.6093 0.1715 0.0 0
M  V30 20 C 16.81 1.0291 0.0 0
M  V30 END ATOM
M  V30 BEGIN BOND
M  V30 1 2 1 2
M  V30 2 1 1 3
M  V30 3 1 2 4
M  V30 4 1 3 5
M  V30 5 1 4 6
M  V30 6 1 5 7
M  V30 7 1 6 8
M  V30 8 1 7 9
M  V30 9 1 8 10
M  V30 10 1 9 11
M  V30 11 1 11 12
M  V30 12 1 12 13
M  V30 13 1 13 14
M  V30 14 1 14 15
M  V30 15 1 15 16
M  V30 16 1 16 17
M  V30 17 1 17 18
M  V30 18 1 18 19
M  V30 19 1 19 20
M  V30 END BOND
M  V30 END CTAB
M  END
>  <Molecule Name>
5-eicosene

>  <Molecule Name 2>
5-eicosene

>  <Database>
Essential Oil Database

>  <InChI>
InChI=1S/C20H40/c1-3-5-7-9-11-13-15-17-19-20-18-16-14-12-10-8-6-4-2/h9,11H,3-8,10,12-20H2,1-2H3/b11-9+

>  <InChI-Key>
QRJSGJWTKHSNMK-PKNBQFBNSA-N

>  <Smiles>
CCCCCCCCCCCCCC/C=C/CCCC

>  <Molecular Formula>
C20H40

$$$$
benzyl cinnamate
Actelion Java MolfileCreator 2.0

  0  0  0  0  0  0              0 V3000
M  V30 BEGIN CTAB
M  V30 COUNTS 18 19 0 0 0
M  V30 BEGIN ATOM
M  V30 1 O 0.0 0.0 0.0 0
M  V30 2 C 1.2087 -0.7039 0.0 0
M  V30 3 O 2.4174 0.1593 0.0 0
M  V30 4 C 1.0758 -2.1385 0.0 0
M  V30 5 C 2.2846 1.8595 0.0 0
M  V30 6 C 2.2846 -2.8557 0.0 0
M  V30 7 C 3.4933 2.7229 0.0 0
M  V30 8 C 2.1517 -4.2903 0.0 0
M  V30 9 C 3.3605 4.4231 0.0 0
M  V30 10 C 4.702 2.0189 0.0 0
M  V30 11 C 3.3605 -5.0075 0.0 0
M  V30 12 C 0.6774 -5.0075 0.0 0
M  V30 13 C 4.5692 5.2865 0.0 0
M  V30 14 C 5.9107 2.8823 0.0 0
M  V30 15 C 3.2276 -6.4421 0.0 0
M  V30 16 C 0.5445 -6.4421 0.0 0
M  V30 17 C 5.7779 4.5825 0.0 0
M  V30 18 C 1.7533 -7.146 0.0 0
M  V30 END ATOM
M  V30 BEGIN BOND
M  V30 1 2 1 2
M  V30 2 1 2 3
M  V30 3 1 2 4
M  V30 4 1 3 5
M  V30 5 2 4 6
M  V30 6 1 5 7
M  V30 7 1 6 8
M  V30 8 2 7 9
M  V30 9 1 7 10
M  V30 10 2 8 11
M  V30 11 1 8 12
M  V30 12 1 9 13
M  V30 13 2 10 14
M  V30 14 1 11 15
M  V30 15 2 12 16
M  V30 16 2 13 17
M  V30 17 2 15 18
M  V30 18 1 14 17
M  V30 19 1 16 18
M  V30 END BOND
M  V30 END CTAB
M  END
>  <Molecule Name>
benzyl cinnamate

>  <Molecule Name 2>
benzyl cinnamate

>  <Database>
Essential Oil Database

>  <InChI>
InChI=1S/C16H14O2/c17-16(12-11-14-7-3-1-4-8-14)18-13-15-9-5-2-6-10-15/h1-12H,13H2/b12-11+

>  <InChI-Key>
NGHOLYJTSCBCGC-VAWYXSNFSA-N

>  <Smiles>
O=C(/C=C/c1ccccc1)OCc1ccccc1

>  <Molecular Formula>
C16H14O2

$$$$
heptyl phenyl propionate
Actelion Java MolfileCreator 2.0

  0  0  0  0  0  0              0 V3000
M  V30 BEGIN CTAB
M  V30 COUNTS 18 18 0 0 0
M  V30 BEGIN ATOM
M  V30 1 O 0.0 0.0 0.0 0
M  V30 2 C -0.1255 -1.3562 0.0 0
M  V30 3 O 1.0172 -2.0218 0.0 0
M  V30 4 C -1.5195 -2.0218 0.0 0
M  V30 5 C 2.16 -1.193 0.0 0
M  V30 6 C -2.9135 -1.193 0.0 0
M  V30 7 C 2.0344 0.4144 0.0 0
M  V30 8 C 3.3028 -1.8586 0.0 0
M  V30 9 C -4.3074 -1.8586 0.0 0
M  V30 10 C 3.1772 1.2432 0.0 0
M  V30 11 C 4.4456 -1.0297 0.0 0
M  V30 12 C -5.7014 -1.0297 0.0 0
M  V30 13 C 4.32 0.5776 0.0 0
M  V30 14 C -7.0953 -1.6953 0.0 0
M  V30 15 C -8.4893 -0.8665 0.0 0
M  V30 16 C -9.8832 -1.532 0.0 0
M  V30 17 C -11.2772 -0.7032 0.0 0
M  V30 18 C -12.6712 -1.3688 0.0 0
M  V30 END ATOM
M  V30 BEGIN BOND
M  V30 1 2 1 2
M  V30 2 1 2 3
M  V30 3 1 2 4
M  V30 4 1 3 5
M  V30 5 1 4 6
M  V30 6 2 5 7
M  V30 7 1 5 8
M  V30 8 1 6 9
M  V30 9 1 7 10
M  V30 10 2 8 11
M  V30 11 1 9 12
M  V30 12 2 10 13
M  V30 13 1 12 14
M  V30 14 1 14 15
M  V30 15 1 15 16
M  V30 16 1 16 17
M  V30 17 1 17 18
M  V30 18 1 11 13
M  V30 END BOND
M  V30 END CTAB
M  END
>  <Molecule Name>
heptyl phenyl propionate

>  <Molecule Name 2>
heptyl phenyl propionate

>  <Database>
Essential Oil Database

>  <InChI>
InChI=1S/C16H24O2/c1-2-3-4-5-6-7-11-14-16(17)18-15-12-9-8-10-13-15/h8-10,12-13H,2-7,11,14H2,1H3

>  <InChI-Key>
SIENSFABYFDZCL-UHFFFAOYSA-N

>  <Smiles>
CCCCCCCCCC(Oc1ccccc1)=O

>  <Molecular Formula>
C16H24O2

$$$$
1-penten-3-ol
Actelion Java MolfileCreator 2.0

  0  0  0  0  0  0              0 V3000
M  V30 BEGIN CTAB
M  V30 COUNTS 6 5 0 0 0
M  V30 BEGIN ATOM
M  V30 1 O 0.0 0.0 0.0 0
M  V30 2 C 1.3977 0.1118 0.0 0 CFG=2
M  V30 3 C 1.9904 -1.0958 0.0 0
M  V30 4 C 1.9904 1.5431 0.0 0
M  V30 5 C 1.0846 -2.3035 0.0 0
M  V30 6 C 1.0846 2.9744 0.0 0
M  V30 END ATOM
M  V30 BEGIN BOND
M  V30 1 1 2 1 CFG=1
M  V30 2 1 2 3
M  V30 3 1 2 4
M  V30 4 2 3 5
M  V30 5 1 4 6
M  V30 END BOND
M  V30 BEGIN COLLECTION
M  V30 MDLV30/STERAC1 ATOMS=(1 2)
M  V30 END COLLECTION
M  V30 END CTAB
M  END
>  <Molecule Name>
1-penten-3-ol

>  <Molecule Name 2>
1-penten-3-ol

>  <Database>
Essential Oil Database

>  <InChI>
InChI=1S/C5H10O/c1-3-5(6)4-2/h3,5-6H,1,4H2,2H3/t5-/m1/s1

>  <InChI-Key>
VHVMXWZXFBOANQ-RXMQYKEDSA-N

>  <Smiles>
CCC(C=C)O

>  <Molecular Formula>
C5H10O

$$$$
2-methylbutan-1-ol
Actelion Java MolfileCreator 2.0

  0  0  0  0  0  0              0 V3000
M  V30 BEGIN CTAB
M  V30 COUNTS 6 5 0 0 0
M  V30 BEGIN ATOM
M  V30 1 O 0.0 0.0 0.0 0
M  V30 2 C 0.7071 -1.2142 0.0 0
M  V30 3 C -0.1601 -2.4284 0.0 0 CFG=2
M  V30 4 C 0.547 -3.6426 0.0 0
M  V30 5 C -1.868 -2.295 0.0 0
M  V30 6 C -0.3068 -4.8568 0.0 0
M  V30 END ATOM
M  V30 BEGIN BOND
M  V30 1 1 1 2
M  V30 2 1 2 3
M  V30 3 1 3 4
M  V30 4 1 3 5 CFG=3
M  V30 5 1 4 6
M  V30 END BOND
M  V30 BEGIN COLLECTION
M  V30 MDLV30/STERAC1 ATOMS=(1 3)
M  V30 END COLLECTION
M  V30 END CTAB
M  END
>  <Molecule Name>
2-methylbutan-1-ol

>  <Molecule Name 2>
2-methylbutan-1-ol

>  <Database>
Essential Oil Database

>  <InChI>
InChI=1S/C5H12O/c1-3-5(2)4-6/h5-6H,3-4H2,1-2H3/t5-/m0/s1

>  <InChI-Key>
QPRQEDXDYOZYLA-YFKPBYRVSA-N

>  <Smiles>
CCC(C)CO

>  <Molecular Formula>
C5H12O

$$$$
2-methylfuran
Actelion Java MolfileCreator 2.0

  0  0  0  0  0  0              0 V3000
M  V30 BEGIN CTAB
M  V30 COUNTS 6 6 0 0 0
M  V30 BEGIN ATOM
M  V30 1 O 0.0 0.0 0.0 0
M  V30 2 C 1.1247 1.0176 0.0 0
M  V30 3 C 0.3883 -1.3657 0.0 0
M  V30 4 C 2.2495 0.2276 0.0 0
M  V30 5 C 0.9908 2.7315 0.0 0
M  V30 6 C 1.8344 -1.2318 0.0 0
M  V30 END ATOM
M  V30 BEGIN BOND
M  V30 1 1 1 2
M  V30 2 1 1 3
M  V30 3 2 2 4
M  V30 4 1 2 5
M  V30 5 2 3 6
M  V30 6 1 4 6
M  V30 END BOND
M  V30 END CTAB
M  END
>  <Molecule Name>
2-methylfuran

>  <Molecule Name 2>
2-methylfuran

>  <Database>
Essential Oil Database

>  <InChI>
InChI=1S/C5H6O/c1-5-3-2-4-6-5/h2-4H,1H3

>  <InChI-Key>
VQKFNUFAXTZWDK-UHFFFAOYSA-N

>  <Smiles>
Cc1ccc[o]1

>  <Molecular Formula>
C5H6O

$$$$
2-methylnonane
Actelion Java MolfileCreator 2.0

  0  0  0  0  0  0              0 V3000
M  V30 BEGIN CTAB
M  V30 COUNTS 10 9 0 0 0
M  V30 BEGIN ATOM
M  V30 1 C 0.0 0.0 0.0 0
M  V30 2 C 1.2257 0.9306 0.0 0
M  V30 3 C -1.4527 0.9306 0.0 0
M  V30 4 C -0.1134 -1.4186 0.0 0
M  V30 5 C 2.4514 0.2496 0.0 0
M  V30 6 C 3.6771 1.1803 0.0 0
M  V30 7 C 4.9028 0.4993 0.0 0
M  V30 8 C 6.1285 1.43 0.0 0
M  V30 9 C 7.3543 0.7717 0.0 0
M  V30 10 C 8.58 1.7023 0.0 0
M  V30 END ATOM
M  V30 BEGIN BOND
M  V30 1 1 1 2
M  V30 2 1 1 3
M  V30 3 1 1 4
M  V30 4 1 2 5
M  V30 5 1 5 6
M  V30 6 1 6 7
M  V30 7 1 7 8
M  V30 8 1 8 9
M  V30 9 1 9 10
M  V30 END BOND
M  V30 END CTAB
M  END
>  <Molecule Name>
2-methylnonane

>  <Molecule Name 2>
2-methylnonane

>  <Database>
Essential Oil Database

>  <InChI>
InChI=1S/C10H22/c1-4-5-6-7-8-9-10(2)3/h10H,4-9H2,1-3H3

>  <InChI-Key>
SGVYKUFIHHTIFL-UHFFFAOYSA-N

>  <Smiles>
CCCCCCCC(C)C

>  <Molecular Formula>
C10H22

$$$$
2-methylpentan-3-one
Actelion Java MolfileCreator 2.0

  0  0  0  0  0  0              0 V3000
M  V30 BEGIN CTAB
M  V30 COUNTS 7 6 0 0 0
M  V30 BEGIN ATOM
M  V30 1 O 0.0 0.0 0.0 0
M  V30 2 C -1.5877 0.124 0.0 0
M  V30 3 C -2.394 1.5009 0.0 0
M  V30 4 C -2.394 -1.0047 0.0 0
M  V30 5 C -1.7366 2.8777 0.0 0
M  V30 6 C -3.9817 1.6249 0.0 0
M  V30 7 C -1.7366 -2.1335 0.0 0
M  V30 END ATOM
M  V30 BEGIN BOND
M  V30 1 2 1 2
M  V30 2 1 2 3
M  V30 3 1 2 4
M  V30 4 1 3 5
M  V30 5 1 3 6
M  V30 6 1 4 7
M  V30 END BOND
M  V30 END CTAB
M  END
>  <Molecule Name>
2-methylpentan-3-one

>  <Molecule Name 2>
2-methylpentan-3-one

>  <Database>
Essential Oil Database

>  <InChI>
InChI=1S/C6H12O/c1-4-6(7)5(2)3/h5H,4H2,1-3H3

>  <InChI-Key>
HYTRYEXINDDXJK-UHFFFAOYSA-N

>  <Smiles>
CCC(C(C)C)=O

>  <Molecular Formula>
C6H12O

$$$$
2-methylpropan-1-ol
Actelion Java MolfileCreator 2.0

  0  0  0  0  0  0              0 V3000
M  V30 BEGIN CTAB
M  V30 COUNTS 5 4 0 0 0
M  V30 BEGIN ATOM
M  V30 1 O 0.0 0.0 0.0 0
M  V30 2 C 0.7062 -1.2126 0.0 0
M  V30 3 C -0.1465 -2.4252 0.0 0
M  V30 4 C 0.5596 -3.6378 0.0 0
M  V30 5 C -1.8522 -2.292 0.0 0
M  V30 END ATOM
M  V30 BEGIN BOND
M  V30 1 1 1 2
M  V30 2 1 2 3
M  V30 3 1 3 4
M  V30 4 1 3 5
M  V30 END BOND
M  V30 END CTAB
M  END
>  <Molecule Name>
2-methylpropan-1-ol

>  <Molecule Name 2>
2-methylpropan-1-ol

>  <Database>
Essential Oil Database

>  <InChI>
InChI=1S/C4H10O/c1-4(2)3-5/h4-5H,3H2,1-2H3

>  <InChI-Key>
ZXEKIIBDNHEJCQ-UHFFFAOYSA-N

>  <Smiles>
CC(C)CO

>  <Molecular Formula>
C4H10O

$$$$
2-methylpropanal
Actelion Java MolfileCreator 2.0

  0  0  0  0  0  0              0 V3000
M  V30 BEGIN CTAB
M  V30 COUNTS 5 4 0 0 0
M  V30 BEGIN ATOM
M  V30 1 O 0.0 0.0 0.0 0
M  V30 2 C 0.7062 -1.2126 0.0 0
M  V30 3 C -0.1465 -2.4252 0.0 0
M  V30 4 C 0.5596 -3.6378 0.0 0
M  V30 5 C -1.8522 -2.292 0.0 0
M  V30 END ATOM
M  V30 BEGIN BOND
M  V30 1 2 1 2
M  V30 2 1 2 3
M  V30 3 1 3 4
M  V30 4 1 3 5
M  V30 END BOND
M  V30 END CTAB
M  END
>  <Molecule Name>
2-methylpropanal

>  <Molecule Name 2>
2-methylpropanal

>  <Database>
Essential Oil Database

>  <InChI>
InChI=1S/C4H8O/c1-4(2)3-5/h3-4H,1-2H3

>  <InChI-Key>
AMIMRNSIRUDHCM-UHFFFAOYSA-N

>  <Smiles>
CC(C)C=O

>  <Molecular Formula>
C4H8O

$$$$
2-methylundecane
Actelion Java MolfileCreator 2.0

  0  0  0  0  0  0              0 V3000
M  V30 BEGIN CTAB
M  V30 COUNTS 12 11 0 0 0
M  V30 BEGIN ATOM
M  V30 1 C 0.0 0.0 0.0 0
M  V30 2 C 1.232 0.9354 0.0 0
M  V30 3 C -1.4602 0.9354 0.0 0
M  V30 4 C -0.114 -1.426 0.0 0
M  V30 5 C 2.4641 0.2852 0.0 0
M  V30 6 C 3.6962 1.2206 0.0 0
M  V30 7 C 4.9283 0.5704 0.0 0
M  V30 8 C 6.1604 1.5058 0.0 0
M  V30 9 C 7.3925 0.7985 0.0 0
M  V30 10 C 8.6246 1.734 0.0 0
M  V30 11 C 9.8567 1.0837 0.0 0
M  V30 12 C 11.0888 2.0192 0.0 0
M  V30 END ATOM
M  V30 BEGIN BOND
M  V30 1 1 1 2
M  V30 2 1 1 3
M  V30 3 1 1 4
M  V30 4 1 2 5
M  V30 5 1 5 6
M  V30 6 1 6 7
M  V30 7 1 7 8
M  V30 8 1 8 9
M  V30 9 1 9 10
M  V30 10 1 10 11
M  V30 11 1 11 12
M  V30 END BOND
M  V30 END CTAB
M  END
>  <Molecule Name>
2-methylundecane

>  <Molecule Name 2>
2-methylundecane

>  <Database>
Essential Oil Database

>  <InChI>
InChI=1S/C12H26/c1-4-5-6-7-8-9-10-11-12(2)3/h12H,4-11H2,1-3H3

>  <InChI-Key>
GTJOHISYCKPIMT-UHFFFAOYSA-N

>  <Smiles>
CCCCCCCCCC(C)C

>  <Molecular Formula>
C12H26

$$$$
4-methylnonane
Actelion Java MolfileCreator 2.0

  0  0  0  0  0  0              0 V3000
M  V30 BEGIN CTAB
M  V30 COUNTS 10 9 0 0 0
M  V30 BEGIN ATOM
M  V30 1 C 0.0 0.0 0.0 0 CFG=2
M  V30 2 C 1.197 0.9089 0.0 0
M  V30 3 C -1.4187 0.9089 0.0 0
M  V30 4 C -0.1108 -1.3855 0.0 0
M  V30 5 C 2.3941 0.2992 0.0 0
M  V30 6 C -2.8375 0.2992 0.0 0
M  V30 7 C 3.5912 1.2081 0.0 0
M  V30 8 C -4.2563 1.2081 0.0 0
M  V30 9 C 4.7883 0.5985 0.0 0
M  V30 10 C 5.9854 1.5074 0.0 0
M  V30 END ATOM
M  V30 BEGIN BOND
M  V30 1 1 1 2
M  V30 2 1 1 3
M  V30 3 1 1 4 CFG=1
M  V30 4 1 2 5
M  V30 5 1 3 6
M  V30 6 1 5 7
M  V30 7 1 6 8
M  V30 8 1 7 9
M  V30 9 1 9 10
M  V30 END BOND
M  V30 BEGIN COLLECTION
M  V30 MDLV30/STERAC1 ATOMS=(1 1)
M  V30 END COLLECTION
M  V30 END CTAB
M  END
>  <Molecule Name>
4-methylnonane

>  <Molecule Name 2>
4-methylnonane

>  <Database>
Essential Oil Database

>  <InChI>
InChI=1S/C10H22/c1-4-6-7-9-10(3)8-5-2/h10H,4-9H2,1-3H3/t10-/m0/s1

>  <InChI-Key>
IALRSQMWHFKJJA-JTQLQIEISA-N

>  <Smiles>
CCCCCC(C)CCC

>  <Molecular Formula>
C10H22

$$$$
acetone
Actelion Java MolfileCreator 2.0

  0  0  0  0  0  0              0 V3000
M  V30 BEGIN CTAB
M  V30 COUNTS 4 3 0 0 0
M  V30 BEGIN ATOM
M  V30 1 O 0.0 0.0 0.0 0
M  V30 2 C 1.4639 0.1171 0.0 0
M  V30 3 C 2.0846 1.6161 0.0 0
M  V30 4 C 2.0846 -1.1477 0.0 0
M  V30 END ATOM
M  V30 BEGIN BOND
M  V30 1 2 1 2
M  V30 2 1 2 3
M  V30 3 1 2 4
M  V30 END BOND
M  V30 END CTAB
M  END
>  <Molecule Name>
acetone

>  <Molecule Name 2>
acetone

>  <Database>
Essential Oil Database

>  <InChI>
InChI=1S/C3H6O/c1-3(2)4/h1-2H3

>  <InChI-Key>
CSCPPACGZOOCGX-UHFFFAOYSA-N

>  <Smiles>
CC(C)=O

>  <Molecular Formula>
C3H6O

$$$$
benzene
Actelion Java MolfileCreator 2.0

  0  0  0  0  0  0              0 V3000
M  V30 BEGIN CTAB
M  V30 COUNTS 6 6 0 0 0
M  V30 BEGIN ATOM
M  V30 1 C 0.0 0.0 0.0 0
M  V30 2 C 1.2648 -0.6207 0.0 0
M  V30 3 C -1.499 -0.6207 0.0 0
M  V30 4 C 1.1477 -2.0846 0.0 0
M  V30 5 C -1.6161 -2.0846 0.0 0
M  V30 6 C -0.3513 -2.7053 0.0 0
M  V30 END ATOM
M  V30 BEGIN BOND
M  V30 1 2 1 2
M  V30 2 1 1 3
M  V30 3 1 2 4
M  V30 4 2 3 5
M  V30 5 2 4 6
M  V30 6 1 5 6
M  V30 END BOND
M  V30 END CTAB
M  END
>  <Molecule Name>
benzene

>  <Molecule Name 2>
benzene

>  <Database>
Essential Oil Database

>  <InChI>
InChI=1S/C6H6/c1-2-4-6-5-3-1/h1-6H

>  <InChI-Key>
UHOVQNZJYSORNB-UHFFFAOYSA-N

>  <Smiles>
c1ccccc1

>  <Molecular Formula>
C6H6

$$$$
benzonitrile
Actelion Java MolfileCreator 2.0

  0  0  0  0  0  0              0 V3000
M  V30 BEGIN CTAB
M  V30 COUNTS 8 8 0 0 0
M  V30 BEGIN ATOM
M  V30 1 N 0.0 0.0 0.0 0
M  V30 2 C -0.1177 -1.4716 0.0 0
M  V30 3 C -0.2354 -2.9432 0.0 0
M  V30 4 C 1.036 -3.5672 0.0 0
M  V30 5 C -1.7424 -3.5672 0.0 0
M  V30 6 C 0.9182 -5.0388 0.0 0
M  V30 7 C -1.8601 -5.0388 0.0 0
M  V30 8 C -0.5886 -5.6628 0.0 0
M  V30 END ATOM
M  V30 BEGIN BOND
M  V30 1 3 1 2
M  V30 2 1 2 3
M  V30 3 2 3 4
M  V30 4 1 3 5
M  V30 5 1 4 6
M  V30 6 2 5 7
M  V30 7 2 6 8
M  V30 8 1 7 8
M  V30 END BOND
M  V30 END CTAB
M  END
>  <Molecule Name>
benzonitrile

>  <Molecule Name 2>
benzonitrile

>  <Database>
Essential Oil Database

>  <InChI>
InChI=1S/C7H5N/c8-6-7-4-2-1-3-5-7/h1-5H

>  <InChI-Key>
JFDZBHWFFUWGJE-UHFFFAOYSA-N

>  <Smiles>
N#Cc1ccccc1

>  <Molecular Formula>
C7H5N

$$$$
butan-2-ol
Actelion Java MolfileCreator 2.0

  0  0  0  0  0  0              0 V3000
M  V30 BEGIN CTAB
M  V30 COUNTS 5 4 0 0 0
M  V30 BEGIN ATOM
M  V30 1 O 0.0 0.0 0.0 0
M  V30 2 C 1.3999 0.1119 0.0 0 CFG=2
M  V30 3 C 1.9935 1.5455 0.0 0
M  V30 4 C 1.9935 -1.0975 0.0 0
M  V30 5 C 1.0863 2.9791 0.0 0
M  V30 END ATOM
M  V30 BEGIN BOND
M  V30 1 1 2 1 CFG=3
M  V30 2 1 2 3
M  V30 3 1 2 4
M  V30 4 1 3 5
M  V30 END BOND
M  V30 BEGIN COLLECTION
M  V30 MDLV30/STERAC1 ATOMS=(1 2)
M  V30 END COLLECTION
M  V30 END CTAB
M  END
>  <Molecule Name>
butan-2-ol

>  <Molecule Name 2>
butan-2-ol

>  <Database>
Essential Oil Database

>  <InChI>
InChI=1S/C4H10O/c1-3-4(2)5/h4-5H,3H2,1-2H3/t4-/m0/s1

>  <InChI-Key>
BTANRVKWQNVYAZ-BYPYZUCNSA-N

>  <Smiles>
CCC(C)O

>  <Molecular Formula>
C4H10O

$$$$
butan-2-one
Actelion Java MolfileCreator 2.0

  0  0  0  0  0  0              0 V3000
M  V30 BEGIN CTAB
M  V30 COUNTS 5 4 0 0 0
M  V30 BEGIN ATOM
M  V30 1 O 0.0 0.0 0.0 0
M  V30 2 C 1.3999 0.1119 0.0 0
M  V30 3 C 1.9935 1.5455 0.0 0
M  V30 4 C 1.9935 -1.0975 0.0 0
M  V30 5 C 1.0863 2.9791 0.0 0
M  V30 END ATOM
M  V30 BEGIN BOND
M  V30 1 2 1 2
M  V30 2 1 2 3
M  V30 3 1 2 4
M  V30 4 1 3 5
M  V30 END BOND
M  V30 END CTAB
M  END
>  <Molecule Name>
butan-2-one

>  <Molecule Name 2>
butan-2-one

>  <Database>
Essential Oil Database

>  <InChI>
InChI=1S/C4H8O/c1-3-4(2)5/h3H2,1-2H3

>  <InChI-Key>
ZWEHNKRNPOVVGH-UHFFFAOYSA-N

>  <Smiles>
CCC(C)=O

>  <Molecular Formula>
C4H8O

$$$$
cumol
Actelion Java MolfileCreator 2.0

  0  0  0  0  0  0              0 V3000
M  V30 BEGIN CTAB
M  V30 COUNTS 10 10 0 0 0
M  V30 BEGIN ATOM
M  V30 1 O 0.0 0.0 0.0 0
M  V30 2 C -1.6449 0.1285 0.0 0
M  V30 3 C -1.7735 -1.2594 0.0 0
M  V30 4 C -1.7735 1.7735 0.0 0
M  V30 5 C -3.2899 0.257 0.0 0
M  V30 6 C -0.604 -1.9405 0.0 0
M  V30 7 C -3.2 -1.9405 0.0 0
M  V30 8 C -0.7325 -3.3285 0.0 0
M  V30 9 C -3.3285 -3.3285 0.0 0
M  V30 10 C -2.159 -4.0096 0.0 0
M  V30 END ATOM
M  V30 BEGIN BOND
M  V30 1 1 1 2
M  V30 2 1 2 3
M  V30 3 1 2 4
M  V30 4 1 2 5
M  V30 5 2 3 6
M  V30 6 1 3 7
M  V30 7 1 6 8
M  V30 8 2 7 9
M  V30 9 2 8 10
M  V30 10 1 9 10
M  V30 END BOND
M  V30 END CTAB
M  END
>  <Molecule Name>
cumol

>  <Molecule Name 2>
cumol

>  <Database>
Essential Oil Database

>  <InChI>
InChI=1S/C9H12O/c1-9(2,10)8-6-4-3-5-7-8/h3-7,10H,1-2H3

>  <InChI-Key>
BDCFWIDZNLCTMF-UHFFFAOYSA-N

>  <Smiles>
CC(C)(c1ccccc1)O

>  <Molecular Formula>
C9H12O

$$$$
ethylcyclohexane
Actelion Java MolfileCreator 2.0

  0  0  0  0  0  0              0 V3000
M  V30 BEGIN CTAB
M  V30 COUNTS 8 8 0 0 0
M  V30 BEGIN ATOM
M  V30 1 C 0.0 0.0 0.0 0
M  V30 2 C 1.1728 -0.683 0.0 0
M  V30 3 C -1.4305 -0.683 0.0 0
M  V30 4 C -0.1288 1.6496 0.0 0
M  V30 5 C 1.0439 -2.075 0.0 0
M  V30 6 C -1.5594 -2.075 0.0 0
M  V30 7 C -1.5594 2.5003 0.0 0
M  V30 8 C -0.3866 -2.758 0.0 0
M  V30 END ATOM
M  V30 BEGIN BOND
M  V30 1 1 1 2
M  V30 2 1 1 3
M  V30 3 1 1 4
M  V30 4 1 2 5
M  V30 5 1 3 6
M  V30 6 1 4 7
M  V30 7 1 5 8
M  V30 8 1 6 8
M  V30 END BOND
M  V30 END CTAB
M  END
>  <Molecule Name>
ethylcyclohexane

>  <Molecule Name 2>
ethylcyclohexane

>  <Database>
Essential Oil Database

>  <InChI>
InChI=1S/C8H16/c1-2-8-6-4-3-5-7-8/h8H,2-7H2,1H3

>  <InChI-Key>
IIEWJVIFRVWJOD-UHFFFAOYSA-N

>  <Smiles>
CCC1CCCCC1

>  <Molecular Formula>
C8H16

$$$$
methylcyclohexane
Actelion Java MolfileCreator 2.0

  0  0  0  0  0  0              0 V3000
M  V30 BEGIN CTAB
M  V30 COUNTS 7 7 0 0 0
M  V30 BEGIN ATOM
M  V30 1 C 0.0 0.0 0.0 0
M  V30 2 C 1.1914 -0.6939 0.0 0
M  V30 3 C -1.4533 -0.6939 0.0 0
M  V30 4 C -0.1309 1.6759 0.0 0
M  V30 5 C 1.0605 -2.108 0.0 0
M  V30 6 C -1.5842 -2.108 0.0 0
M  V30 7 C -0.3927 -2.8019 0.0 0
M  V30 END ATOM
M  V30 BEGIN BOND
M  V30 1 1 1 2
M  V30 2 1 1 3
M  V30 3 1 1 4
M  V30 4 1 2 5
M  V30 5 1 3 6
M  V30 6 1 5 7
M  V30 7 1 6 7
M  V30 END BOND
M  V30 END CTAB
M  END
>  <Molecule Name>
methylcyclohexane

>  <Molecule Name 2>
methylcyclohexane

>  <Database>
Essential Oil Database

>  <InChI>
InChI=1S/C7H14/c1-7-5-3-2-4-6-7/h7H,2-6H2,1H3

>  <InChI-Key>
UAEPNZWRGJTJPN-UHFFFAOYSA-N

>  <Smiles>
CC1CCCCC1

>  <Molecular Formula>
C7H14

$$$$
n-hexane
Actelion Java MolfileCreator 2.0

  0  0  0  0  0  0              0 V3000
M  V30 BEGIN CTAB
M  V30 COUNTS 6 5 0 0 0
M  V30 BEGIN ATOM
M  V30 1 C 0.0 0.0 0.0 0
M  V30 2 C 1.2023 0.8238 0.0 0
M  V30 3 C -1.4249 0.8238 0.0 0
M  V30 4 C 2.4046 0.1669 0.0 0
M  V30 5 C -2.8499 0.1669 0.0 0
M  V30 6 C 3.6069 0.9907 0.0 0
M  V30 END ATOM
M  V30 BEGIN BOND
M  V30 1 1 1 2
M  V30 2 1 1 3
M  V30 3 1 2 4
M  V30 4 1 3 5
M  V30 5 1 4 6
M  V30 END BOND
M  V30 END CTAB
M  END
>  <Molecule Name>
n-hexane

>  <Molecule Name 2>
n-hexane

>  <Database>
Essential Oil Database

>  <InChI>
InChI=1S/C6H14/c1-3-5-6-4-2/h3-6H2,1-2H3

>  <InChI-Key>
VLKZOEOYAKHREP-UHFFFAOYSA-N

>  <Smiles>
CCCCCC

>  <Molecular Formula>
C6H14

$$$$
n-pentane
Actelion Java MolfileCreator 2.0

  0  0  0  0  0  0              0 V3000
M  V30 BEGIN CTAB
M  V30 COUNTS 5 4 0 0 0
M  V30 BEGIN ATOM
M  V30 1 C 0.0 0.0 0.0 0
M  V30 2 C 1.3764 0.1274 0.0 0
M  V30 3 C -0.8283 1.4146 0.0 0
M  V30 4 C 2.0518 -1.0323 0.0 0
M  V30 5 C -2.4596 1.542 0.0 0
M  V30 END ATOM
M  V30 BEGIN BOND
M  V30 1 1 1 2
M  V30 2 1 1 3
M  V30 3 1 2 4
M  V30 4 1 3 5
M  V30 END BOND
M  V30 END CTAB
M  END
>  <Molecule Name>
n-pentane

>  <Molecule Name 2>
n-pentane

>  <Database>
Essential Oil Database

>  <InChI>
InChI=1S/C5H12/c1-3-5-4-2/h3-5H2,1-2H3

>  <InChI-Key>
OFBQJSOFQDEBGM-UHFFFAOYSA-N

>  <Smiles>
CCCCC

>  <Molecular Formula>
C5H12

$$$$
o-xylene
Actelion Java MolfileCreator 2.0

  0  0  0  0  0  0              0 V3000
M  V30 BEGIN CTAB
M  V30 COUNTS 8 8 0 0 0
M  V30 BEGIN ATOM
M  V30 1 C 0.0 0.0 0.0 0
M  V30 2 C 1.195 -0.696 0.0 0
M  V30 3 C -1.4576 -0.696 0.0 0
M  V30 4 C -0.1313 1.6809 0.0 0
M  V30 5 C 1.0637 -2.1143 0.0 0
M  V30 6 C 2.39 0.1575 0.0 0
M  V30 7 C -1.589 -2.1143 0.0 0
M  V30 8 C -0.3939 -2.8103 0.0 0
M  V30 END ATOM
M  V30 BEGIN BOND
M  V30 1 2 1 2
M  V30 2 1 1 3
M  V30 3 1 1 4
M  V30 4 1 2 5
M  V30 5 1 2 6
M  V30 6 2 3 7
M  V30 7 2 5 8
M  V30 8 1 7 8
M  V30 END BOND
M  V30 END CTAB
M  END
>  <Molecule Name>
o-xylene

>  <Molecule Name 2>
o-xylene

>  <Database>
Essential Oil Database

>  <InChI>
InChI=1S/C8H10/c1-7-5-3-4-6-8(7)2/h3-6H,1-2H3

>  <InChI-Key>
CTQNGGLPUBDAKN-UHFFFAOYSA-N

>  <Smiles>
Cc1c(C)cccc1

>  <Molecular Formula>
C8H10

$$$$
propan-1-ol
Actelion Java MolfileCreator 2.0

  0  0  0  0  0  0              0 V3000
M  V30 BEGIN CTAB
M  V30 COUNTS 4 3 0 0 0
M  V30 BEGIN ATOM
M  V30 1 O 0.0 0.0 0.0 0
M  V30 2 C 1.516 0.1203 0.0 0
M  V30 3 C 2.1537 -1.1911 0.0 0
M  V30 4 C 3.6698 -1.0708 0.0 0
M  V30 END ATOM
M  V30 BEGIN BOND
M  V30 1 1 1 2
M  V30 2 1 2 3
M  V30 3 1 3 4
M  V30 END BOND
M  V30 END CTAB
M  END
>  <Molecule Name>
propan-1-ol

>  <Molecule Name 2>
propan-1-ol

>  <Database>
Essential Oil Database

>  <InChI>
InChI=1S/C3H8O/c1-2-3-4/h4H,2-3H2,1H3

>  <InChI-Key>
BDERNNFJNOPAEC-UHFFFAOYSA-N

>  <Smiles>
CCCO

>  <Molecular Formula>
C3H8O

$$$$
propan-2-ol
Actelion Java MolfileCreator 2.0

  0  0  0  0  0  0              0 V3000
M  V30 BEGIN CTAB
M  V30 COUNTS 4 3 0 0 0
M  V30 BEGIN ATOM
M  V30 1 O 0.0 0.0 0.0 0
M  V30 2 C 1.4639 0.1171 0.0 0
M  V30 3 C 2.0846 1.6161 0.0 0
M  V30 4 C 2.0846 -1.1477 0.0 0
M  V30 END ATOM
M  V30 BEGIN BOND
M  V30 1 1 1 2
M  V30 2 1 2 3
M  V30 3 1 2 4
M  V30 END BOND
M  V30 END CTAB
M  END
>  <Molecule Name>
propan-2-ol

>  <Molecule Name 2>
propan-2-ol

>  <Database>
Essential Oil Database

>  <InChI>
InChI=1S/C3H8O/c1-3(2)4/h3-4H,1-2H3

>  <InChI-Key>
KFZMGEQAYNKOFK-UHFFFAOYSA-N

>  <Smiles>
CC(C)O

>  <Molecular Formula>
C3H8O

$$$$
propylcyclohexane
Actelion Java MolfileCreator 2.0

  0  0  0  0  0  0              0 V3000
M  V30 BEGIN CTAB
M  V30 COUNTS 9 9 0 0 0
M  V30 BEGIN ATOM
M  V30 1 C 0.0 0.0 0.0 0
M  V30 2 C 1.1788 -0.6865 0.0 0
M  V30 3 C -1.4378 -0.6865 0.0 0
M  V30 4 C -0.1295 1.658 0.0 0
M  V30 5 C 1.0492 -2.0855 0.0 0
M  V30 6 C -1.5674 -2.0855 0.0 0
M  V30 7 C 1.0492 2.5 0.0 0
M  V30 8 C -0.3886 -2.7721 0.0 0
M  V30 9 C 0.9197 4.1581 0.0 0
M  V30 END ATOM
M  V30 BEGIN BOND
M  V30 1 1 1 2
M  V30 2 1 1 3
M  V30 3 1 1 4
M  V30 4 1 2 5
M  V30 5 1 3 6
M  V30 6 1 4 7
M  V30 7 1 5 8
M  V30 8 1 7 9
M  V30 9 1 6 8
M  V30 END BOND
M  V30 END CTAB
M  END
>  <Molecule Name>
propylcyclohexane

>  <Molecule Name 2>
propylcyclohexane

>  <Database>
Essential Oil Database

>  <InChI>
InChI=1S/C9H18/c1-2-6-9-7-4-3-5-8-9/h9H,2-8H2,1H3

>  <InChI-Key>
DEDZSLCZHWTGOR-UHFFFAOYSA-N

>  <Smiles>
CCCC1CCCCC1

>  <Molecular Formula>
C9H18

$$$$
tetrahydrofuran
Actelion Java MolfileCreator 2.0

  0  0  0  0  0  0              0 V3000
M  V30 BEGIN CTAB
M  V30 COUNTS 5 5 0 0 0
M  V30 BEGIN ATOM
M  V30 1 O 0.0 0.0 0.0 0
M  V30 2 C 1.1496 -0.8273 0.0 0
M  V30 3 C -1.3645 -0.8273 0.0 0
M  V30 4 C 0.6016 -2.1811 0.0 0
M  V30 5 C -1.0314 -2.1811 0.0 0
M  V30 END ATOM
M  V30 BEGIN BOND
M  V30 1 1 1 2
M  V30 2 1 1 3
M  V30 3 1 2 4
M  V30 4 1 3 5
M  V30 5 1 4 5
M  V30 END BOND
M  V30 END CTAB
M  END
>  <Molecule Name>
tetrahydrofuran

>  <Molecule Name 2>
tetrahydrofuran

>  <Database>
Essential Oil Database

>  <InChI>
InChI=1S/C4H8O/c1-2-4-5-3-1/h1-4H2

>  <InChI-Key>
WYURNTSHIVDZCO-UHFFFAOYSA-N

>  <Smiles>
C1COCC1

>  <Molecular Formula>
C4H8O

$$$$
2,4-tetradecadienal
Actelion Java MolfileCreator 2.0

  0  0  0  0  0  0              0 V3000
M  V30 BEGIN CTAB
M  V30 COUNTS 15 14 0 0 0
M  V30 BEGIN ATOM
M  V30 1 O 0.0 0.0 0.0 0
M  V30 2 C -0.1357 1.7379 0.0 0
M  V30 3 C 1.0997 2.6204 0.0 0
M  V30 4 C 2.3353 1.8872 0.0 0
M  V30 5 C 3.5708 2.7698 0.0 0
M  V30 6 C 4.8064 2.0366 0.0 0
M  V30 7 C 6.0419 2.9191 0.0 0
M  V30 8 C 7.2775 2.1859 0.0 0
M  V30 9 C 8.513 3.0685 0.0 0
M  V30 10 C 9.7486 2.3353 0.0 0
M  V30 11 C 10.9841 3.2178 0.0 0
M  V30 12 C 12.2197 2.4846 0.0 0
M  V30 13 C 13.4552 3.3672 0.0 0
M  V30 14 C 14.6908 2.634 0.0 0
M  V30 15 C 15.9263 3.5301 0.0 0
M  V30 END ATOM
M  V30 BEGIN BOND
M  V30 1 2 1 2
M  V30 2 1 2 3
M  V30 3 2 3 4
M  V30 4 1 4 5
M  V30 5 2 5 6
M  V30 6 1 6 7
M  V30 7 1 7 8
M  V30 8 1 8 9
M  V30 9 1 9 10
M  V30 10 1 10 11
M  V30 11 1 11 12
M  V30 12 1 12 13
M  V30 13 1 13 14
M  V30 14 1 14 15
M  V30 END BOND
M  V30 END CTAB
M  END
>  <Molecule Name>
2,4-tetradecadienal

>  <Molecule Name 2>
2,4-tetradecadienal

>  <Database>
Essential Oil Database

>  <InChI>
InChI=1S/C14H24O/c1-2-3-4-5-6-7-8-9-10-11-12-13-14-15/h10-14H,2-9H2,1H3/b11-10+,13-12+

>  <InChI-Key>
FKPVPINTWUDGAG-AQASXUMVSA-N

>  <Smiles>
CCCCCCCCC/C=C/C=C/C=O

>  <Molecular Formula>
C14H24O

$$$$
o-methoxy cinnamaldehyde
Actelion Java MolfileCreator 2.0

  0  0  0  0  0  0              0 V3000
M  V30 BEGIN CTAB
M  V30 COUNTS 12 12 0 0 0
M  V30 BEGIN ATOM
M  V30 1 O 0.0 0.0 0.0 0
M  V30 2 C 1.2826 -0.6413 0.0 0
M  V30 3 C 1.1638 -2.1258 0.0 0
M  V30 4 C 2.4464 -2.7552 0.0 0
M  V30 5 C 2.3277 -4.2397 0.0 0
M  V30 6 C 3.6103 -4.8692 0.0 0
M  V30 7 C 0.8075 -4.8692 0.0 0
M  V30 8 O 4.8929 -3.9072 0.0 0
M  V30 9 C 3.4915 -6.3537 0.0 0
M  V30 10 C 0.6888 -6.3537 0.0 0
M  V30 11 C 6.1756 -4.5367 0.0 0
M  V30 12 C 1.9714 -6.9831 0.0 0
M  V30 END ATOM
M  V30 BEGIN BOND
M  V30 1 2 1 2
M  V30 2 1 2 3
M  V30 3 2 3 4
M  V30 4 1 4 5
M  V30 5 2 5 6
M  V30 6 1 5 7
M  V30 7 1 6 8
M  V30 8 1 6 9
M  V30 9 2 7 10
M  V30 10 1 8 11
M  V30 11 2 9 12
M  V30 12 1 10 12
M  V30 END BOND
M  V30 END CTAB
M  END
>  <Molecule Name>
o-methoxy cinnamaldehyde

>  <Molecule Name 2>
o-methoxy cinnamaldehyde

>  <Database>
Essential Oil Database

>  <InChI>
InChI=1S/C10H10O2/c1-12-10-7-3-2-5-9(10)6-4-8-11/h2-8H,1H3/b6-4+

>  <InChI-Key>
KKVZAVRSVHUSPL-GQCTYLIASA-N

>  <Smiles>
COc1c(/C=C/C=O)cccc1

>  <Molecular Formula>
C10H10O2

$$$$
(z)-cinnamyl acetate
Actelion Java MolfileCreator 2.0

  0  0  0  0  0  0              0 V3000
M  V30 BEGIN CTAB
M  V30 COUNTS 13 13 0 0 0
M  V30 BEGIN ATOM
M  V30 1 O 0.0 0.0 0.0 0
M  V30 2 C 1.2771 -0.6267 0.0 0
M  V30 3 O 2.5542 0.3192 0.0 0
M  V30 4 C 1.1588 -2.1049 0.0 0
M  V30 5 C 3.8314 -0.3074 0.0 0
M  V30 6 C 5.1085 0.6385 0.0 0
M  V30 7 C 6.3856 0.0118 0.0 0
M  V30 8 C 6.2674 -1.4663 0.0 0
M  V30 9 C 7.5445 -2.093 0.0 0
M  V30 10 C 4.7537 -2.093 0.0 0
M  V30 11 C 7.4263 -3.5712 0.0 0
M  V30 12 C 4.6355 -3.5712 0.0 0
M  V30 13 C 5.9126 -4.198 0.0 0
M  V30 END ATOM
M  V30 BEGIN BOND
M  V30 1 2 1 2
M  V30 2 1 2 3
M  V30 3 1 2 4
M  V30 4 1 3 5
M  V30 5 1 5 6
M  V30 6 2 6 7
M  V30 7 1 7 8
M  V30 8 2 8 9
M  V30 9 1 8 10
M  V30 10 1 9 11
M  V30 11 2 10 12
M  V30 12 2 11 13
M  V30 13 1 12 13
M  V30 END BOND
M  V30 END CTAB
M  END
>  <Molecule Name>
(z)-cinnamyl acetate

>  <Molecule Name 2>
(z)-cinnamyl acetate

>  <Database>
Essential Oil Database

>  <InChI>
InChI=1S/C11H12O2/c1-10(12)13-9-5-8-11-6-3-2-4-7-11/h2-8H,9H2,1H3/b8-5-

>  <InChI-Key>
WJSDHUCWMSHDCR-YVMONPNESA-N

>  <Smiles>
CC(OC/C=C\c1ccccc1)=O

>  <Molecular Formula>
C11H12O2

$$$$
(z)-methyl cinnamate
Actelion Java MolfileCreator 2.0

  0  0  0  0  0  0              0 V3000
M  V30 BEGIN CTAB
M  V30 COUNTS 12 12 0 0 0
M  V30 BEGIN ATOM
M  V30 1 O 0.0 0.0 0.0 0
M  V30 2 C -0.1304 1.6692 0.0 0
M  V30 3 O -1.5779 2.5299 0.0 0
M  V30 4 C 1.0563 2.5299 0.0 0
M  V30 5 C -3.0254 1.8387 0.0 0
M  V30 6 C 2.243 1.8387 0.0 0
M  V30 7 C 2.1126 0.4303 0.0 0
M  V30 8 C 3.2993 -0.2608 0.0 0
M  V30 9 C 0.665 -0.2608 0.0 0
M  V30 10 C 3.1689 -1.6692 0.0 0
M  V30 11 C 0.5346 -1.6692 0.0 0
M  V30 12 C 1.7214 -2.3604 0.0 0
M  V30 END ATOM
M  V30 BEGIN BOND
M  V30 1 2 1 2
M  V30 2 1 2 3
M  V30 3 1 2 4
M  V30 4 1 3 5
M  V30 5 2 4 6
M  V30 6 1 6 7
M  V30 7 2 7 8
M  V30 8 1 7 9
M  V30 9 1 8 10
M  V30 10 2 9 11
M  V30 11 2 10 12
M  V30 12 1 11 12
M  V30 END BOND
M  V30 END CTAB
M  END
>  <Molecule Name>
(z)-methyl cinnamate

>  <Molecule Name 2>
(z)-methyl cinnamate

>  <Database>
Essential Oil Database

>  <InChI>
InChI=1S/C10H10O2/c1-12-10(11)8-7-9-5-3-2-4-6-9/h2-8H,1H3/b8-7-

>  <InChI-Key>
CCRCUPLGCSFEDV-FPLPWBNLSA-N

>  <Smiles>
COC(/C=C\c1ccccc1)=O

>  <Molecular Formula>
C10H10O2

$$$$
(e)-cinnamyl acetate
Actelion Java MolfileCreator 2.0

  0  0  0  0  0  0              0 V3000
M  V30 BEGIN CTAB
M  V30 COUNTS 13 13 0 0 0
M  V30 BEGIN ATOM
M  V30 1 O 0.0 0.0 0.0 0
M  V30 2 C 1.2833 -0.6297 0.0 0
M  V30 3 O 1.1645 -2.1151 0.0 0
M  V30 4 C 2.5666 0.3327 0.0 0
M  V30 5 C 2.4478 -2.7567 0.0 0
M  V30 6 C 2.329 -4.2421 0.0 0
M  V30 7 C 3.6123 -4.8719 0.0 0
M  V30 8 C 3.4935 -6.3572 0.0 0
M  V30 9 C 4.7768 -6.987 0.0 0
M  V30 10 C 1.9725 -6.987 0.0 0
M  V30 11 C 4.658 -8.4723 0.0 0
M  V30 12 C 1.8537 -8.4723 0.0 0
M  V30 13 C 3.137 -9.1021 0.0 0
M  V30 END ATOM
M  V30 BEGIN BOND
M  V30 1 2 1 2
M  V30 2 1 2 3
M  V30 3 1 2 4
M  V30 4 1 3 5
M  V30 5 1 5 6
M  V30 6 2 6 7
M  V30 7 1 7 8
M  V30 8 2 8 9
M  V30 9 1 8 10
M  V30 10 1 9 11
M  V30 11 2 10 12
M  V30 12 2 11 13
M  V30 13 1 12 13
M  V30 END BOND
M  V30 END CTAB
M  END
>  <Molecule Name>
(e)-cinnamyl acetate

>  <Molecule Name 2>
(e)-cinnamyl acetate

>  <Database>
Essential Oil Database

>  <InChI>
InChI=1S/C11H12O2/c1-10(12)13-9-5-8-11-6-3-2-4-7-11/h2-8H,9H2,1H3/b8-5+

>  <InChI-Key>
WJSDHUCWMSHDCR-VMPITWQZSA-N

>  <Smiles>
CC(OC/C=C/c1ccccc1)=O

>  <Molecular Formula>
C11H12O2

$$$$
3-methoxycinnamaldehyde
Actelion Java MolfileCreator 2.0

  0  0  0  0  0  0              0 V3000
M  V30 BEGIN CTAB
M  V30 COUNTS 12 12 0 0 0
M  V30 BEGIN ATOM
M  V30 1 O 0.0 0.0 0.0 0
M  V30 2 C 1.2826 -0.6413 0.0 0
M  V30 3 C 1.1638 -2.1258 0.0 0
M  V30 4 C 2.4464 -2.7552 0.0 0
M  V30 5 C 2.3277 -4.2397 0.0 0
M  V30 6 C 3.6103 -4.8692 0.0 0
M  V30 7 C 0.8075 -4.8692 0.0 0
M  V30 8 C 3.4915 -6.3537 0.0 0
M  V30 9 C 0.6888 -6.3537 0.0 0
M  V30 10 O 4.7742 -6.9831 0.0 0
M  V30 11 C 1.9714 -6.9831 0.0 0
M  V30 12 C 6.0568 -6.0212 0.0 0
M  V30 END ATOM
M  V30 BEGIN BOND
M  V30 1 2 1 2
M  V30 2 1 2 3
M  V30 3 2 3 4
M  V30 4 1 4 5
M  V30 5 2 5 6
M  V30 6 1 5 7
M  V30 7 1 6 8
M  V30 8 2 7 9
M  V30 9 1 8 10
M  V30 10 2 8 11
M  V30 11 1 10 12
M  V30 12 1 9 11
M  V30 END BOND
M  V30 END CTAB
M  END
>  <Molecule Name>
3-methoxycinnamaldehyde

>  <Molecule Name 2>
3-methoxycinnamaldehyde

>  <Database>
Essential Oil Database

>  <InChI>
InChI=1S/C10H10O2/c1-12-10-6-2-4-9(8-10)5-3-7-11/h2-8H,1H3/b5-3+

>  <InChI-Key>
XHYAQFCRAQUBTD-HWKANZROSA-N

>  <Smiles>
COc1cccc(/C=C/C=O)c1

>  <Molecular Formula>
C10H10O2

$$$$
alpha-santalene
Actelion Java MolfileCreator 2.0

  0  0  0  0  0  0              0 V3000
M  V30 BEGIN CTAB
M  V30 COUNTS 15 17 0 0 0
M  V30 BEGIN ATOM
M  V30 1 C 0.0 0.0 0.0 0
M  V30 2 C -0.2986 1.5358 0.0 0
M  V30 3 C 1.1234 -0.4835 0.0 0
M  V30 4 C -1.2514 -0.7537 0.0 0
M  V30 5 C -1.7065 2.3038 0.0 0
M  V30 6 C -2.9579 1.55 0.0 0
M  V30 7 C -4.3658 2.318 0.0 0 CFG=2
M  V30 8 C -5.8874 2.8584 0.0 0 CFG=2
M  V30 9 C -3.7827 3.6405 0.0 0 CFG=1
M  V30 10 C -5.02 1.1519 0.0 0
M  V30 11 C -6.0297 4.6787 0.0 0 CFG=2
M  V30 12 C -6.8118 3.8396 0.0 0 CFG=2
M  V30 13 C -6.8118 1.8202 0.0 0
M  V30 14 C -4.5649 5.0342 0.0 0
M  V30 15 C -5.1906 4.4653 0.0 0
M  V30 END ATOM
M  V30 BEGIN BOND
M  V30 1 2 1 2
M  V30 2 1 1 3
M  V30 3 1 1 4
M  V30 4 1 2 5
M  V30 5 1 5 6
M  V30 6 1 6 7
M  V30 7 1 7 8
M  V30 8 1 7 9
M  V30 9 1 7 10 CFG=1
M  V30 10 1 8 11
M  V30 11 1 8 12
M  V30 12 1 8 13 CFG=1
M  V30 13 1 9 14 CFG=1
M  V30 14 1 9 15
M  V30 15 1 11 12
M  V30 16 1 11 14 CFG=3
M  V30 17 1 12 15 CFG=1
M  V30 END BOND
M  V30 BEGIN COLLECTION
M  V30 MDLV30/STEABS ATOMS=(2 8 9)
M  V30 MDLV30/STERAC1 ATOMS=(3 7 11 12)
M  V30 END COLLECTION
M  V30 END CTAB
M  END
>  <Molecule Name>
alpha-santalene

>  <Molecule Name 2>
alpha-santalene

>  <Database>
Essential Oil Database

>  <InChI>
InChI=1S/C15H24/c1-10(2)6-5-7-14(3)11-8-12-13(9-11)15(12,14)4/h6,11-13H,5,7-9H2,1-4H3/t11-,12-,13-,14-,15+/m0/s1

>  <InChI-Key>
KWFJIXPIFLVMPM-YYFQZIEXSA-N

>  <Smiles>
C[C@]12[C@@](C)(CCC=C(C)C)[C@@H]3C[C@H]1[C@@H]2C3

>  <Molecular Formula>
C15H24

$$$$
eudesmol
Actelion Java MolfileCreator 2.0

  0  0  0  0  0  0              0 V3000
M  V30 BEGIN CTAB
M  V30 COUNTS 16 17 0 0 0
M  V30 BEGIN ATOM
M  V30 1 O 0.0 0.0 0.0 0
M  V30 2 C -0.7812 -1.1108 0.0 0
M  V30 3 C -2.1362 -0.3173 0.0 0 CFG=2
M  V30 4 C 0.3295 -1.77 0.0 0
M  V30 5 C -1.5869 -2.2216 0.0 0
M  V30 6 C -3.4911 -0.9765 0.0 0
M  V30 7 C -2.2582 1.2451 0.0 0
M  V30 8 C -4.8461 -0.1831 0.0 0 CFG=1
M  V30 9 C -3.6132 2.0385 0.0 0
M  V30 10 C -4.9682 1.3793 0.0 0 CFG=2
M  V30 11 C -6.2011 -0.8422 0.0 0 CFG=2
M  V30 12 C -6.3231 2.1728 0.0 0
M  V30 13 C -5.0902 2.9418 0.0 0
M  V30 14 C -7.556 -0.0488 0.0 0
M  V30 15 C -6.3231 -2.1606 0.0 0
M  V30 16 C -7.6781 1.5258 0.0 0
M  V30 END ATOM
M  V30 BEGIN BOND
M  V30 1 1 1 2
M  V30 2 1 3 2 CFG=3
M  V30 3 1 2 4
M  V30 4 1 2 5
M  V30 5 1 3 6
M  V30 6 1 3 7
M  V30 7 1 8 6 CFG=3
M  V30 8 1 7 9
M  V30 9 1 8 10
M  V30 10 1 8 11
M  V30 11 1 10 12
M  V30 12 1 10 13 CFG=3
M  V30 13 1 11 14
M  V30 14 1 11 15 CFG=1
M  V30 15 1 12 16
M  V30 16 1 9 10
M  V30 17 1 14 16
M  V30 END BOND
M  V30 BEGIN COLLECTION
M  V30 MDLV30/STERAC1 ATOMS=(4 3 8 10 11)
M  V30 END COLLECTION
M  V30 END CTAB
M  END
>  <Molecule Name>
eudesmol

>  <Molecule Name 2>
eudesmol

>  <Database>
Essential Oil Database

>  <InChI>
InChI=1S/C15H28O/c1-11-6-5-8-15(4)9-7-12(10-13(11)15)14(2,3)16/h11-13,16H,5-10H2,1-4H3/t11-,12-,13+,15-/m0/s1

>  <InChI-Key>
YJHVMPKSUPGGPZ-XPCVCDNBSA-N

>  <Smiles>
C[C@@H](CCC1)[C@@H](C2)[C@]1(C)CC[C@@H]2C(C)(C)O

>  <Molecular Formula>
C15H28O

$$$$
beta-santalene
Actelion Java MolfileCreator 2.0

  0  0  0  0  0  0              0 V3000
M  V30 BEGIN CTAB
M  V30 COUNTS 15 16 0 0 0
M  V30 BEGIN ATOM
M  V30 1 C 0.0 0.0 0.0 0
M  V30 2 C -1.4467 0.8449 0.0 0
M  V30 3 C -0.128 -1.4083 0.0 0 CFG=2
M  V30 4 C 1.1906 0.8449 0.0 0 CFG=2
M  V30 5 C 1.0626 -2.0868 0.0 0 CFG=1
M  V30 6 C -0.8065 -2.7142 0.0 0
M  V30 7 C -1.7668 -0.9986 0.0 0
M  V30 8 C 0.6529 -0.5633 0.0 0
M  V30 9 C 2.3813 0.1664 0.0 0
M  V30 10 C 2.2533 -1.2418 0.0 0
M  V30 11 C 0.0256 -3.7384 0.0 0
M  V30 12 C -0.6529 -5.0443 0.0 0
M  V30 13 C -2.2917 -5.1979 0.0 0
M  V30 14 C -2.9702 -6.5038 0.0 0
M  V30 15 C -3.3799 -3.9176 0.0 0
M  V30 END ATOM
M  V30 BEGIN BOND
M  V30 1 2 1 2
M  V30 2 1 1 3
M  V30 3 1 1 4
M  V30 4 1 3 5
M  V30 5 1 3 6
M  V30 6 1 3 7 CFG=1
M  V30 7 1 4 8 CFG=3
M  V30 8 1 4 9
M  V30 9 1 5 10 CFG=1
M  V30 10 1 6 11
M  V30 11 1 11 12
M  V30 12 2 12 13
M  V30 13 1 13 14
M  V30 14 1 13 15
M  V30 15 1 5 8
M  V30 16 1 9 10
M  V30 END BOND
M  V30 BEGIN COLLECTION
M  V30 MDLV30/STERAC1 ATOMS=(3 3 4 5)
M  V30 END COLLECTION
M  V30 END CTAB
M  END
>  <Molecule Name>
beta-santalene

>  <Molecule Name 2>
beta-santalene

>  <Database>
Essential Oil Database

>  <InChI>
InChI=1S/C15H24/c1-11(2)6-5-9-15(4)12(3)13-7-8-14(15)10-13/h6,13-14H,3,5,7-10H2,1-2,4H3/t13-,14+,15+/m0/s1

>  <InChI-Key>
PGBNIHXXFQBCPU-RRFJBIMHSA-N

>  <Smiles>
C[C@](CCC=C(C)C)([C@H]1C[C@@H]2CC1)C2=C

>  <Molecular Formula>
C15H24

$$$$
nootkatone
Actelion Java MolfileCreator 2.0

  0  0  0  0  0  0              0 V3000
M  V30 BEGIN CTAB
M  V30 COUNTS 16 17 0 0 0
M  V30 BEGIN ATOM
M  V30 1 O 0.0 0.0 0.0 0
M  V30 2 C 1.2804 -0.6226 0.0 0
M  V30 3 C 2.5609 0.3289 0.0 0
M  V30 4 C 1.163 -2.1028 0.0 0
M  V30 5 C 3.8414 -0.2936 0.0 0
M  V30 6 C 2.4434 -2.7489 0.0 0 CFG=2
M  V30 7 C 3.7239 -1.7738 0.0 0 CFG=2
M  V30 8 C 5.1219 0.6578 0.0 0
M  V30 9 C 2.326 -4.2291 0.0 0
M  V30 10 C 5.0044 -2.42 0.0 0
M  V30 11 C 3.6065 -3.254 0.0 0
M  V30 12 C 6.4024 0.0352 0.0 0
M  V30 13 C 6.2849 -1.4567 0.0 0 CFG=1
M  V30 14 C 7.5654 -2.1028 0.0 0
M  V30 15 C 7.4479 -3.583 0.0 0
M  V30 16 C 8.8459 -1.1395 0.0 0
M  V30 END ATOM
M  V30 BEGIN BOND
M  V30 1 2 1 2
M  V30 2 1 2 3
M  V30 3 1 2 4
M  V30 4 2 3 5
M  V30 5 1 4 6
M  V30 6 1 5 7
M  V30 7 1 5 8
M  V30 8 1 6 9 CFG=3
M  V30 9 1 7 10
M  V30 10 1 7 11 CFG=3
M  V30 11 1 8 12
M  V30 12 1 10 13
M  V30 13 1 13 14 CFG=1
M  V30 14 2 14 15
M  V30 15 1 14 16
M  V30 16 1 6 7
M  V30 17 1 12 13
M  V30 END BOND
M  V30 BEGIN COLLECTION
M  V30 MDLV30/STERAC1 ATOMS=(3 6 7 13)
M  V30 END COLLECTION
M  V30 END CTAB
M  END
>  <Molecule Name>
nootkatone

>  <Molecule Name 2>
nootkatone

>  <Database>
Essential Oil Database

>  <InChI>
InChI=1S/C15H22O/c1-10(2)12-5-6-13-8-14(16)7-11(3)15(13,4)9-12/h8,11-12H,1,5-7,9H2,2-4H3/t11-,12-,15+/m1/s1

>  <InChI-Key>
WTOYNNBCKUYIKC-JMSVASOKSA-N

>  <Smiles>
C[C@H](C1)[C@](C)(C[C@@H](CC2)C(C)=C)C2=CC1=O

>  <Molecular Formula>
C15H22O

$$$$
gamma-bisabolene
Actelion Java MolfileCreator 2.0

  0  0  0  0  0  0              0 V3000
M  V30 BEGIN CTAB
M  V30 COUNTS 15 15 0 0 0
M  V30 BEGIN ATOM
M  V30 1 C 0.0 0.0 0.0 0
M  V30 2 C -0.1266 1.6209 0.0 0
M  V30 3 C -1.4056 -0.6711 0.0 0
M  V30 4 C 1.1523 -0.6711 0.0 0
M  V30 5 C -1.5323 2.444 0.0 0
M  V30 6 C 1.0257 2.444 0.0 0
M  V30 7 C -1.5323 -2.0388 0.0 0
M  V30 8 C 1.0257 -2.0388 0.0 0
M  V30 9 C -1.6589 4.065 0.0 0
M  V30 10 C -0.3799 -2.71 0.0 0
M  V30 11 C -3.0646 4.8881 0.0 0
M  V30 12 C -0.5065 -4.0777 0.0 0
M  V30 13 C -3.1912 6.5091 0.0 0
M  V30 14 C -4.5969 7.3322 0.0 0
M  V30 15 C -2.0388 7.3322 0.0 0
M  V30 END ATOM
M  V30 BEGIN BOND
M  V30 1 2 1 2
M  V30 2 1 1 3
M  V30 3 1 1 4
M  V30 4 1 2 5
M  V30 5 1 2 6
M  V30 6 1 3 7
M  V30 7 1 4 8
M  V30 8 1 5 9
M  V30 9 2 7 10
M  V30 10 1 9 11
M  V30 11 1 10 12
M  V30 12 2 11 13
M  V30 13 1 13 14
M  V30 14 1 13 15
M  V30 15 1 8 10
M  V30 END BOND
M  V30 END CTAB
M  END
>  <Molecule Name>
gamma-bisabolene

>  <Molecule Name 2>
gamma-bisabolene

>  <Database>
Essential Oil Database

>  <InChI>
InChI=1S/C15H24/c1-12(2)6-5-7-14(4)15-10-8-13(3)9-11-15/h6,8H,5,7,9-11H2,1-4H3/b15-14+

>  <InChI-Key>
XBGUIVFBMBVUEG-CCEZHUSRSA-N

>  <Smiles>
CC(C)=CCC/C(\C)=C1\CC=C(C)CC\1

>  <Molecular Formula>
C15H24

$$$$
geranic acid
Actelion Java MolfileCreator 2.0

  0  0  0  0  0  0              0 V3000
M  V30 BEGIN CTAB
M  V30 COUNTS 12 11 0 0 0
M  V30 BEGIN ATOM
M  V30 1 O 0.0 0.0 0.0 0
M  V30 2 C 1.455 0.1164 0.0 0
M  V30 3 O 2.0719 -1.1407 0.0 0
M  V30 4 C 2.0719 1.6063 0.0 0
M  V30 5 C 3.527 1.7227 0.0 0
M  V30 6 C 4.1439 3.2127 0.0 0
M  V30 7 C 4.1439 0.4656 0.0 0
M  V30 8 C 5.5989 3.3291 0.0 0
M  V30 9 C 6.2159 4.819 0.0 0
M  V30 10 C 7.6709 4.9354 0.0 0
M  V30 11 C 8.2995 6.4254 0.0 0
M  V30 12 C 8.2995 3.6783 0.0 0
M  V30 END ATOM
M  V30 BEGIN BOND
M  V30 1 2 1 2
M  V30 2 1 2 3
M  V30 3 1 2 4
M  V30 4 2 4 5
M  V30 5 1 5 6
M  V30 6 1 5 7
M  V30 7 1 6 8
M  V30 8 1 8 9
M  V30 9 2 9 10
M  V30 10 1 10 11
M  V30 11 1 10 12
M  V30 END BOND
M  V30 END CTAB
M  END
>  <Molecule Name>
geranic acid

>  <Molecule Name 2>
geranic acid

>  <Database>
Essential Oil Database

>  <InChI>
InChI=1S/C10H16O2/c1-8(2)5-4-6-9(3)7-10(11)12/h5,7H,4,6H2,1-3H3,(H,11,12)/b9-7+

>  <InChI-Key>
ZHYZQXUYZJNEHD-VQHVLOKHSA-N

>  <Smiles>
CC(C)=CCC/C(\C)=C/C(O)=O

>  <Molecular Formula>
C10H16O2

$$$$
myrcenol
Actelion Java MolfileCreator 2.0

  0  0  0  0  0  0              0 V3000
M  V30 BEGIN CTAB
M  V30 COUNTS 11 10 0 0 0
M  V30 BEGIN ATOM
M  V30 1 O 0.0 0.0 0.0 0
M  V30 2 C 1.1263 0.8045 0.0 0
M  V30 3 C 0.3218 2.1784 0.0 0
M  V30 4 C 1.7823 -0.3218 0.0 0
M  V30 5 C 2.2527 1.609 0.0 0
M  V30 6 C -1.2625 2.3022 0.0 0
M  V30 7 C -2.067 3.6761 0.0 0
M  V30 8 C -3.6514 3.7999 0.0 0
M  V30 9 C -4.4559 5.1738 0.0 0
M  V30 10 C -4.4559 2.6735 0.0 0
M  V30 11 C -6.0402 5.2976 0.0 0
M  V30 END ATOM
M  V30 BEGIN BOND
M  V30 1 1 1 2
M  V30 2 1 2 3
M  V30 3 1 2 4
M  V30 4 1 2 5
M  V30 5 1 3 6
M  V30 6 1 6 7
M  V30 7 1 7 8
M  V30 8 1 8 9
M  V30 9 2 8 10
M  V30 10 2 9 11
M  V30 END BOND
M  V30 END CTAB
M  END
>  <Molecule Name>
myrcenol

>  <Molecule Name 2>
myrcenol

>  <Database>
Essential Oil Database

>  <InChI>
InChI=1S/C10H18O/c1-5-9(2)7-6-8-10(3,4)11/h5,11H,1-2,6-8H2,3-4H3

>  <InChI-Key>
DUNCVNHORHNONW-UHFFFAOYSA-N

>  <Smiles>
CC(C)(CCCC(C=C)=C)O

>  <Molecular Formula>
C10H18O

$$$$
caryophyllene acetate
Actelion Java MolfileCreator 2.0

  0  0  0  0  0  0              0 V3000
M  V30 BEGIN CTAB
M  V30 COUNTS 19 20 0 0 0
M  V30 BEGIN ATOM
M  V30 1 O 0.0 0.0 0.0 0
M  V30 2 C 0.6468 1.3546 0.0 0
M  V30 3 O -0.1342 2.7093 0.0 0
M  V30 4 C 1.9648 1.4767 0.0 0
M  V30 5 C -1.6963 2.8313 0.0 0
M  V30 6 C -2.3432 4.2958 0.0 0
M  V30 7 C -2.3432 1.6109 0.0 0
M  V30 8 C -3.6978 5.0891 0.0 0
M  V30 9 C -1.3912 5.3088 0.0 0
M  V30 10 C -3.6978 0.9641 0.0 0
M  V30 11 C -5.2356 4.9427 0.0 0
M  V30 12 C -5.2356 1.3546 0.0 0
M  V30 13 C -6.2485 3.9907 0.0 0
M  V30 14 C -6.0288 0.244 0.0 0
M  V30 15 C -6.2485 2.5506 0.0 0
M  V30 16 C -7.8107 4.1128 0.0 0
M  V30 17 C -7.8107 2.6727 0.0 0
M  V30 18 C -9.3728 4.2348 0.0 0
M  V30 19 C -7.9327 5.6749 0.0 0
M  V30 END ATOM
M  V30 BEGIN BOND
M  V30 1 2 1 2
M  V30 2 1 2 3
M  V30 3 1 2 4
M  V30 4 1 3 5
M  V30 5 1 5 6
M  V30 6 1 5 7
M  V30 7 2 6 8
M  V30 8 1 6 9
M  V30 9 1 7 10
M  V30 10 1 8 11
M  V30 11 1 10 12
M  V30 12 1 11 13
M  V30 13 2 12 14
M  V30 14 1 12 15
M  V30 15 1 13 16
M  V30 16 1 15 17
M  V30 17 1 16 18
M  V30 18 1 16 19
M  V30 19 1 13 15
M  V30 20 1 16 17
M  V30 END BOND
M  V30 END CTAB
M  END
>  <Molecule Name>
caryophyllene acetate

>  <Molecule Name 2>
caryophyllene acetate

>  <Database>
Essential Oil Database

>  <InChI>
InChI=1S/C17H26O2/c1-11-7-9-16(19-13(3)18)12(2)6-8-15-14(11)10-17(15,4)5/h6,14-16H,1,7-10H2,2-5H3/b12-6-

>  <InChI-Key>
OCLOVRSVPZPWHE-SDQBBNPISA-N

>  <Smiles>
CC(C)(C1)C(C/C=C(/C)\C(CC2)OC(C)=O)C1C2=C

>  <Molecular Formula>
C17H26O2

$$$$
camphene hydrate
Actelion Java MolfileCreator 2.0

  0  0  0  0  0  0              0 V3000
M  V30 BEGIN CTAB
M  V30 COUNTS 11 12 0 0 0
M  V30 BEGIN ATOM
M  V30 1 O 0.0 0.0 0.0 0
M  V30 2 C 1.422 0.0775 0.0 0
M  V30 3 C 1.2928 -1.3445 0.0 0
M  V30 4 C 2.6243 0.9308 0.0 0
M  V30 5 C 0.5171 1.5125 0.0 0
M  V30 6 C 2.4951 -2.0297 0.0 0
M  V30 7 C 0.6076 -2.6631 0.0 0
M  V30 8 C -0.3619 -0.9308 0.0 0
M  V30 9 C 2.0814 -0.4912 0.0 0
M  V30 10 C 3.8266 0.2456 0.0 0
M  V30 11 C 3.6974 -1.1764 0.0 0
M  V30 END ATOM
M  V30 BEGIN BOND
M  V30 1 1 1 2
M  V30 2 1 2 3
M  V30 3 1 2 4
M  V30 4 1 2 5
M  V30 5 1 3 6
M  V30 6 1 3 7
M  V30 7 1 3 8
M  V30 8 1 4 9
M  V30 9 1 4 10
M  V30 10 1 6 11
M  V30 11 1 6 9
M  V30 12 1 10 11
M  V30 END BOND
M  V30 END CTAB
M  END
>  <Molecule Name>
camphene hydrate

>  <Molecule Name 2>
camphene hydrate

>  <Database>
Essential Oil Database

>  <InChI>
InChI=1S/C10H18O/c1-9(2)7-4-5-8(6-7)10(9,3)11/h7-8,11H,4-6H2,1-3H3

>  <InChI-Key>
PXRCIOIWVGAZEP-UHFFFAOYSA-N

>  <Smiles>
CC(C)(C1CC2CC1)C2(C)O

>  <Molecular Formula>
C10H18O

$$$$
(e,e)-farnesyl acetone
Actelion Java MolfileCreator 2.0

  0  0  0  0  0  0              0 V3000
M  V30 BEGIN CTAB
M  V30 COUNTS 19 18 0 0 0
M  V30 BEGIN ATOM
M  V30 1 O 0.0 0.0 0.0 0
M  V30 2 C 0.6755 -1.1383 0.0 0
M  V30 3 C -0.1376 -2.2767 0.0 0
M  V30 4 C 2.0265 -1.0132 0.0 0
M  V30 5 C -1.7388 -2.1516 0.0 0
M  V30 6 C -2.5644 -3.29 0.0 0
M  V30 7 C -4.1656 -3.1649 0.0 0
M  V30 8 C -4.9913 -4.3032 0.0 0
M  V30 9 C -4.9913 -1.7763 0.0 0
M  V30 10 C -6.5925 -4.1781 0.0 0
M  V30 11 C -7.4181 -5.3165 0.0 0
M  V30 12 C -9.0193 -5.1914 0.0 0
M  V30 13 C -9.845 -6.3298 0.0 0
M  V30 14 C -9.845 -3.8028 0.0 0
M  V30 15 C -11.4462 -6.2047 0.0 0
M  V30 16 C -12.2718 -7.343 0.0 0
M  V30 17 C -13.873 -7.218 0.0 0
M  V30 18 C -14.6987 -8.3563 0.0 0
M  V30 19 C -14.6987 -5.8294 0.0 0
M  V30 END ATOM
M  V30 BEGIN BOND
M  V30 1 2 1 2
M  V30 2 1 2 3
M  V30 3 1 2 4
M  V30 4 1 3 5
M  V30 5 1 5 6
M  V30 6 2 6 7
M  V30 7 1 7 8
M  V30 8 1 7 9
M  V30 9 1 8 10
M  V30 10 1 10 11
M  V30 11 2 11 12
M  V30 12 1 12 13
M  V30 13 1 12 14
M  V30 14 1 13 15
M  V30 15 1 15 16
M  V30 16 2 16 17
M  V30 17 1 17 18
M  V30 18 1 17 19
M  V30 END BOND
M  V30 END CTAB
M  END
>  <Molecule Name>
(e,e)-farnesyl acetone

>  <Molecule Name 2>
(e,e)-farnesyl acetone

>  <Database>
Essential Oil Database

>  <InChI>
InChI=1S/C18H30O/c1-15(2)9-6-10-16(3)11-7-12-17(4)13-8-14-18(5)19/h9,11,13H,6-8,10,12,14H2,1-5H3/b16-11+,17-13+

>  <InChI-Key>
LTUMRKDLVGQMJU-IUBLYSDUSA-N

>  <Smiles>
CC(C)=CCC/C(\C)=C/CC/C(\C)=C/CCC(C)=O

>  <Molecular Formula>
C18H30O

$$$$
2-octanol
Actelion Java MolfileCreator 2.0

  0  0  0  0  0  0              0 V3000
M  V30 BEGIN CTAB
M  V30 COUNTS 9 8 0 0 0
M  V30 BEGIN ATOM
M  V30 1 O 0.0 0.0 0.0 0
M  V30 2 C -0.1154 -1.4427 0.0 0 CFG=2
M  V30 3 C 1.1311 -2.1007 0.0 0
M  V30 4 C -1.5928 -2.1007 0.0 0
M  V30 5 C 2.3777 -1.1542 0.0 0
M  V30 6 C 3.6243 -1.8467 0.0 0
M  V30 7 C 4.8708 -0.9003 0.0 0
M  V30 8 C 6.1174 -1.5466 0.0 0
M  V30 9 C 7.364 -0.6002 0.0 0
M  V30 END ATOM
M  V30 BEGIN BOND
M  V30 1 1 2 1 CFG=3
M  V30 2 1 2 3
M  V30 3 1 2 4
M  V30 4 1 3 5
M  V30 5 1 5 6
M  V30 6 1 6 7
M  V30 7 1 7 8
M  V30 8 1 8 9
M  V30 END BOND
M  V30 BEGIN COLLECTION
M  V30 MDLV30/STERAC1 ATOMS=(1 2)
M  V30 END COLLECTION
M  V30 END CTAB
M  END
>  <Molecule Name>
2-octanol

>  <Molecule Name 2>
2-octanol

>  <Database>
Essential Oil Database

>  <InChI>
InChI=1S/C8H18O/c1-3-4-5-6-7-8(2)9/h8-9H,3-7H2,1-2H3/t8-/m0/s1

>  <InChI-Key>
SJWFXCIHNDVPSH-QMMMGPOBSA-N

>  <Smiles>
CCCCCCC(C)O

>  <Molecular Formula>
C8H18O

$$$$
3-methylpentan-1-ol
Actelion Java MolfileCreator 2.0

  0  0  0  0  0  0              0 V3000
M  V30 BEGIN CTAB
M  V30 COUNTS 7 6 0 0 0
M  V30 BEGIN ATOM
M  V30 1 O 0.0 0.0 0.0 0
M  V30 2 C 1.2142 0.8673 0.0 0
M  V30 3 C 2.4284 0.1601 0.0 0
M  V30 4 C 3.6427 1.0274 0.0 0 CFG=2
M  V30 5 C 4.8569 0.3202 0.0 0
M  V30 6 C 3.5092 2.7353 0.0 0
M  V30 7 C 6.0711 1.1875 0.0 0
M  V30 END ATOM
M  V30 BEGIN BOND
M  V30 1 1 1 2
M  V30 2 1 2 3
M  V30 3 1 3 4
M  V30 4 1 4 5
M  V30 5 1 4 6 CFG=1
M  V30 6 1 5 7
M  V30 END BOND
M  V30 BEGIN COLLECTION
M  V30 MDLV30/STERAC1 ATOMS=(1 4)
M  V30 END COLLECTION
M  V30 END CTAB
M  END
>  <Molecule Name>
3-methylpentan-1-ol

>  <Molecule Name 2>
3-methylpentan-1-ol

>  <Database>
Essential Oil Database

>  <InChI>
InChI=1S/C6H14O/c1-3-6(2)4-5-7/h6-7H,3-5H2,1-2H3/t6-/m0/s1

>  <InChI-Key>
IWTBVKIGCDZRPL-LURJTMIESA-N

>  <Smiles>
CCC(C)CCO

>  <Molecular Formula>
C6H14O

$$$$
4-methylpentan-1-ol
Actelion Java MolfileCreator 2.0

  0  0  0  0  0  0              0 V3000
M  V30 BEGIN CTAB
M  V30 COUNTS 7 6 0 0 0
M  V30 BEGIN ATOM
M  V30 1 O 0.0 0.0 0.0 0
M  V30 2 C 1.2609 0.9485 0.0 0
M  V30 3 C 2.5218 0.3354 0.0 0
M  V30 4 C 3.7827 1.284 0.0 0
M  V30 5 C 5.0436 0.6709 0.0 0
M  V30 6 C 6.3046 1.6195 0.0 0
M  V30 7 C 4.928 -0.7866 0.0 0
M  V30 END ATOM
M  V30 BEGIN BOND
M  V30 1 1 1 2
M  V30 2 1 2 3
M  V30 3 1 3 4
M  V30 4 1 4 5
M  V30 5 1 5 6
M  V30 6 1 5 7
M  V30 END BOND
M  V30 END CTAB
M  END
>  <Molecule Name>
4-methylpentan-1-ol

>  <Molecule Name 2>
4-methylpentan-1-ol

>  <Database>
Essential Oil Database

>  <InChI>
InChI=1S/C6H14O/c1-6(2)4-3-5-7/h6-7H,3-5H2,1-2H3

>  <InChI-Key>
PCWGTDULNUVNBN-UHFFFAOYSA-N

>  <Smiles>
CC(C)CCCO

>  <Molecular Formula>
C6H14O

$$$$
trans-thujone
Actelion Java MolfileCreator 2.0

  0  0  0  0  0  0              0 V3000
M  V30 BEGIN CTAB
M  V30 COUNTS 11 12 0 0 0
M  V30 BEGIN ATOM
M  V30 1 O 0.0 0.0 0.0 0
M  V30 2 C -1.5831 0.1236 0.0 0
M  V30 3 C -2.5231 1.4099 0.0 0 CFG=2
M  V30 4 C -2.5231 -0.9152 0.0 0
M  V30 5 C -4.032 1.0513 0.0 0 CFG=2
M  V30 6 C -2.1644 2.9189 0.0 0
M  V30 7 C -4.032 -0.3092 0.0 0 CFG=1
M  V30 8 C -5.4049 0.3957 0.0 0
M  V30 9 C -4.7988 -1.5089 0.0 0
M  V30 10 C -6.3696 -1.546 0.0 0
M  V30 11 C -4.0691 -2.5478 0.0 0
M  V30 END ATOM
M  V30 BEGIN BOND
M  V30 1 2 1 2
M  V30 2 1 2 3
M  V30 3 1 2 4
M  V30 4 1 3 5
M  V30 5 1 3 6 CFG=3
M  V30 6 1 4 7
M  V30 7 1 5 8 CFG=3
M  V30 8 1 7 9 CFG=1
M  V30 9 1 9 10
M  V30 10 1 9 11
M  V30 11 1 5 7
M  V30 12 1 7 8
M  V30 END BOND
M  V30 BEGIN COLLECTION
M  V30 MDLV30/STERAC1 ATOMS=(3 3 5 7)
M  V30 END COLLECTION
M  V30 END CTAB
M  END
>  <Molecule Name>
trans-thujone

>  <Molecule Name 2>
trans-thujone

>  <Database>
Essential Oil Database

>  <InChI>
InChI=1S/C10H16O/c1-6(2)10-4-8(10)7(3)9(11)5-10/h6-8H,4-5H2,1-3H3/t7-,8+,10-/m0/s1

>  <InChI-Key>
USMNOWBWPHYOEA-XKSSXDPKSA-N

>  <Smiles>
CC(C)[C@](C1)(C2)[C@H]1[C@H](C)C2=O

>  <Molecular Formula>
C10H16O

$$$$
(2e,6z)-farnesol
Actelion Java MolfileCreator 2.0

  0  0  0  0  0  0              0 V3000
M  V30 BEGIN CTAB
M  V30 COUNTS 16 15 0 0 0
M  V30 BEGIN ATOM
M  V30 1 O 0.0 0.0 0.0 0
M  V30 2 C 0.6552 -1.125 0.0 0
M  V30 3 C -0.1359 -2.2501 0.0 0
M  V30 4 C -1.7185 -2.1265 0.0 0
M  V30 5 C -2.5221 -3.2516 0.0 0
M  V30 6 C -2.5221 -0.7541 0.0 0
M  V30 7 C -4.1047 -3.1279 0.0 0
M  V30 8 C -4.8959 -1.7556 0.0 0
M  V30 9 C -6.4785 -1.6319 0.0 0
M  V30 10 C -7.2821 -2.757 0.0 0
M  V30 11 C -7.2821 -0.2596 0.0 0
M  V30 12 C -8.8647 -2.6334 0.0 0
M  V30 13 C -9.6683 -3.7585 0.0 0
M  V30 14 C -11.2508 -3.6349 0.0 0
M  V30 15 C -12.0545 -4.7599 0.0 0
M  V30 16 C -12.0545 -2.2625 0.0 0
M  V30 END ATOM
M  V30 BEGIN BOND
M  V30 1 1 1 2
M  V30 2 1 2 3
M  V30 3 2 3 4
M  V30 4 1 4 5
M  V30 5 1 4 6
M  V30 6 1 5 7
M  V30 7 1 7 8
M  V30 8 2 8 9
M  V30 9 1 9 10
M  V30 10 1 9 11
M  V30 11 1 10 12
M  V30 12 1 12 13
M  V30 13 2 13 14
M  V30 14 1 14 15
M  V30 15 1 14 16
M  V30 END BOND
M  V30 END CTAB
M  END
>  <Molecule Name>
(2e,6z)-farnesol

>  <Molecule Name 2>
(2e,6z)-farnesol

>  <Database>
Essential Oil Database

>  <InChI>
InChI=1S/C15H26O/c1-13(2)7-5-8-14(3)9-6-10-15(4)11-12-16/h7,9,11,16H,5-6,8,10,12H2,1-4H3/b14-9-,15-11+

>  <InChI-Key>
CRDAMVZIKSXKFV-GNESMGCMSA-N

>  <Smiles>
CC(C)=CCC/C(\C)=C\CC/C(\C)=C/CO

>  <Molecular Formula>
C15H26O

$$$$
atractylone
Actelion Java MolfileCreator 2.0

  0  0  0  0  0  0              0 V3000
M  V30 BEGIN CTAB
M  V30 COUNTS 16 18 0 0 0
M  V30 BEGIN ATOM
M  V30 1 O 0.0 0.0 0.0 0
M  V30 2 C -1.5426 -0.3667 0.0 0
M  V30 3 C 0.746 -1.0621 0.0 0
M  V30 4 C -1.6691 -1.7323 0.0 0
M  V30 5 C -2.9462 0.4552 0.0 0
M  V30 6 C -0.2149 -2.1243 0.0 0
M  V30 7 C -3.0727 -2.4025 0.0 0
M  V30 8 C -4.3498 -0.2149 0.0 0 CFG=1
M  V30 9 C 0.1517 -3.4141 0.0 0
M  V30 10 C -4.4762 -1.5806 0.0 0 CFG=1
M  V30 11 C -5.7534 0.6069 0.0 0
M  V30 12 C -4.4762 1.4035 0.0 0
M  V30 13 C -5.8798 -2.2507 0.0 0
M  V30 14 C -7.1569 -0.0632 0.0 0
M  V30 15 C -6.0063 -3.6164 0.0 0
M  V30 16 C -7.2834 -1.4288 0.0 0
M  V30 END ATOM
M  V30 BEGIN BOND
M  V30 1 1 1 2
M  V30 2 1 1 3
M  V30 3 2 2 4
M  V30 4 1 2 5
M  V30 5 2 3 6
M  V30 6 1 4 7
M  V30 7 1 5 8
M  V30 8 1 6 9
M  V30 9 1 10 7 CFG=3
M  V30 10 1 8 11
M  V30 11 1 8 12 CFG=3
M  V30 12 1 10 13
M  V30 13 1 11 14
M  V30 14 2 13 15
M  V30 15 1 13 16
M  V30 16 1 4 6
M  V30 17 1 8 10
M  V30 18 1 14 16
M  V30 END BOND
M  V30 BEGIN COLLECTION
M  V30 MDLV30/STERAC1 ATOMS=(2 8 10)
M  V30 END COLLECTION
M  V30 END CTAB
M  END
>  <Molecule Name>
atractylone

>  <Molecule Name 2>
atractylone

>  <Database>
Essential Oil Database

>  <InChI>
InChI=1S/C15H20O/c1-10-5-4-6-15(3)8-14-12(7-13(10)15)11(2)9-16-14/h9,13H,1,4-8H2,2-3H3/t13-,15+/m1/s1

>  <InChI-Key>
TYPSVDGIQAOBAD-HIFRSBDPSA-N

>  <Smiles>
C[C@](CCC1)(Cc2c(C3)c(C)c[o]2)[C@H]3C1=C

>  <Molecular Formula>
C15H20O

$$$$
(e)-cinnamyl alcohol
Actelion Java MolfileCreator 2.0

  0  0  0  0  0  0              0 V3000
M  V30 BEGIN CTAB
M  V30 COUNTS 10 10 0 0 0
M  V30 BEGIN ATOM
M  V30 1 O 0.0 0.0 0.0 0
M  V30 2 C 1.2761 -0.6262 0.0 0
M  V30 3 C 2.5522 0.3308 0.0 0
M  V30 4 C 3.8283 -0.2953 0.0 0
M  V30 5 C 3.7101 -1.7723 0.0 0
M  V30 6 C 4.9862 -2.3985 0.0 0
M  V30 7 C 2.1977 -2.3985 0.0 0
M  V30 8 C 4.868 -3.8755 0.0 0
M  V30 9 C 2.0795 -3.8755 0.0 0
M  V30 10 C 3.3556 -4.5018 0.0 0
M  V30 END ATOM
M  V30 BEGIN BOND
M  V30 1 1 1 2
M  V30 2 1 2 3
M  V30 3 2 3 4
M  V30 4 1 4 5
M  V30 5 2 5 6
M  V30 6 1 5 7
M  V30 7 1 6 8
M  V30 8 2 7 9
M  V30 9 2 8 10
M  V30 10 1 9 10
M  V30 END BOND
M  V30 END CTAB
M  END
>  <Molecule Name>
(e)-cinnamyl alcohol

>  <Molecule Name 2>
(e)-cinnamyl alcohol

>  <Database>
Essential Oil Database

>  <InChI>
InChI=1S/C9H10O/c10-8-4-7-9-5-2-1-3-6-9/h1-7,10H,8H2/b7-4-

>  <InChI-Key>
OOCCDEMITAIZTP-DAXSKMNVSA-N

>  <Smiles>
OC/C=C\c1ccccc1

>  <Molecular Formula>
C9H10O

$$$$
hexadecanamide
Actelion Java MolfileCreator 2.0

  0  0  0  0  0  0              0 V3000
M  V30 BEGIN CTAB
M  V30 COUNTS 18 17 0 0 0
M  V30 BEGIN ATOM
M  V30 1 O 0.0 0.0 0.0 0
M  V30 2 C 1.2396 0.8854 0.0 0
M  V30 3 N 1.1034 2.6291 0.0 0
M  V30 4 C 2.4793 0.1498 0.0 0
M  V30 5 C 3.7189 1.0489 0.0 0
M  V30 6 C 4.9586 0.3133 0.0 0
M  V30 7 C 6.1982 1.1987 0.0 0
M  V30 8 C 7.4379 0.4631 0.0 0
M  V30 9 C 8.6775 1.3622 0.0 0
M  V30 10 C 9.9172 0.6266 0.0 0
M  V30 11 C 11.1568 1.5121 0.0 0
M  V30 12 C 12.3965 0.7764 0.0 0
M  V30 13 C 13.6361 1.6755 0.0 0
M  V30 14 C 14.8758 0.9399 0.0 0
M  V30 15 C 16.1154 1.839 0.0 0
M  V30 16 C 17.3551 1.1034 0.0 0
M  V30 17 C 18.5947 1.9888 0.0 0
M  V30 18 C 19.8344 1.2532 0.0 0
M  V30 END ATOM
M  V30 BEGIN BOND
M  V30 1 2 1 2
M  V30 2 1 2 3
M  V30 3 1 2 4
M  V30 4 1 4 5
M  V30 5 1 5 6
M  V30 6 1 6 7
M  V30 7 1 7 8
M  V30 8 1 8 9
M  V30 9 1 9 10
M  V30 10 1 10 11
M  V30 11 1 11 12
M  V30 12 1 12 13
M  V30 13 1 13 14
M  V30 14 1 14 15
M  V30 15 1 15 16
M  V30 16 1 16 17
M  V30 17 1 17 18
M  V30 END BOND
M  V30 END CTAB
M  END
>  <Molecule Name>
hexadecanamide

>  <Molecule Name 2>
hexadecanamide

>  <Database>
Essential Oil Database

>  <InChI>
InChI=1S/C16H33NO/c1-2-3-4-5-6-7-8-9-10-11-12-13-14-15-16(17)18/h2-15H2,1H3,(H2,17,18)

>  <InChI-Key>
HSEMFIZWXHQJAE-UHFFFAOYSA-N

>  <Smiles>
CCCCCCCCCCCCCCCC(N)=O

>  <Molecular Formula>
C16H33NO

$$$$
ethyl cinnamate
Actelion Java MolfileCreator 2.0

  0  0  0  0  0  0              0 V3000
M  V30 BEGIN CTAB
M  V30 COUNTS 13 13 0 0 0
M  V30 BEGIN ATOM
M  V30 1 O 0.0 0.0 0.0 0
M  V30 2 C -1.4383 -0.6997 0.0 0
M  V30 3 O -2.8766 0.1425 0.0 0
M  V30 4 C -1.5679 -2.0991 0.0 0
M  V30 5 C -3.0062 1.8011 0.0 0
M  V30 6 C -0.3887 -2.7859 0.0 0
M  V30 7 C -4.4445 2.6434 0.0 0
M  V30 8 C -0.5183 -4.1854 0.0 0
M  V30 9 C 0.6608 -4.8721 0.0 0
M  V30 10 C -1.9566 -4.8721 0.0 0
M  V30 11 C 0.5312 -6.2716 0.0 0
M  V30 12 C -2.0862 -6.2716 0.0 0
M  V30 13 C -0.907 -6.9583 0.0 0
M  V30 END ATOM
M  V30 BEGIN BOND
M  V30 1 2 1 2
M  V30 2 1 2 3
M  V30 3 1 2 4
M  V30 4 1 3 5
M  V30 5 2 4 6
M  V30 6 1 5 7
M  V30 7 1 6 8
M  V30 8 2 8 9
M  V30 9 1 8 10
M  V30 10 1 9 11
M  V30 11 2 10 12
M  V30 12 2 11 13
M  V30 13 1 12 13
M  V30 END BOND
M  V30 END CTAB
M  END
>  <Molecule Name>
ethyl cinnamate

>  <Molecule Name 2>
ethyl cinnamate

>  <Database>
Essential Oil Database

>  <InChI>
InChI=1S/C11H12O2/c1-2-13-11(12)9-8-10-6-4-3-5-7-10/h3-9H,2H2,1H3/b9-8+

>  <InChI-Key>
KBEBGUQPQBELIU-CMDGGOBGSA-N

>  <Smiles>
CCOC(/C=C/c1ccccc1)=O

>  <Molecular Formula>
C11H12O2

$$$$
styrene
Actelion Java MolfileCreator 2.0

  0  0  0  0  0  0              0 V3000
M  V30 BEGIN CTAB
M  V30 COUNTS 8 8 0 0 0
M  V30 BEGIN ATOM
M  V30 1 C 0.0 0.0 0.0 0
M  V30 2 C 1.1728 -0.683 0.0 0
M  V30 3 C -1.4305 -0.683 0.0 0
M  V30 4 C -0.1288 1.6496 0.0 0
M  V30 5 C 1.0439 -2.075 0.0 0
M  V30 6 C -1.5594 -2.075 0.0 0
M  V30 7 C -1.5594 2.5003 0.0 0
M  V30 8 C -0.3866 -2.758 0.0 0
M  V30 END ATOM
M  V30 BEGIN BOND
M  V30 1 2 1 2
M  V30 2 1 1 3
M  V30 3 1 1 4
M  V30 4 1 2 5
M  V30 5 2 3 6
M  V30 6 2 4 7
M  V30 7 2 5 8
M  V30 8 1 6 8
M  V30 END BOND
M  V30 END CTAB
M  END
>  <Molecule Name>
styrene

>  <Molecule Name 2>
styrene

>  <Database>
Essential Oil Database

>  <InChI>
InChI=1S/C8H8/c1-2-8-6-4-3-5-7-8/h2-7H,1H2

>  <InChI-Key>
PPBRXRYQALVLMV-UHFFFAOYSA-N

>  <Smiles>
C=Cc1ccccc1

>  <Molecular Formula>
C8H8

$$$$
copaene
Actelion Java MolfileCreator 2.0

  0  0  0  0  0  0              0 V3000
M  V30 BEGIN CTAB
M  V30 COUNTS 15 17 0 0 0
M  V30 BEGIN ATOM
M  V30 1 C 0.0 0.0 0.0 0
M  V30 2 C 0.9719 -0.92 0.0 0
M  V30 3 C -1.3088 -1.0107 0.0 0 CFG=2
M  V30 4 C -0.1295 1.5939 0.0 0
M  V30 5 C 0.2462 -2.1122 0.0 0
M  V30 6 C -2.0085 -0.1555 0.0 0 CFG=2
M  V30 7 C -2.4103 -2.177 0.0 0
M  V30 8 C -1.4124 -1.8142 0.0 0 CFG=1
M  V30 9 C -3.5636 0.5701 0.0 0
M  V30 10 C -1.231 1.1144 0.0 0
M  V30 11 C -3.9783 -1.9567 0.0 0 CFG=2
M  V30 12 C -4.6651 -0.3887 0.0 0
M  V30 13 C -4.9372 -2.9804 0.0 0
M  V30 14 C -4.4318 -4.1856 0.0 0
M  V30 15 C -6.5311 -2.6694 0.0 0
M  V30 END ATOM
M  V30 BEGIN BOND
M  V30 1 2 1 2
M  V30 2 1 3 1 CFG=1
M  V30 3 1 1 4
M  V30 4 1 2 5
M  V30 5 1 3 6
M  V30 6 1 3 7
M  V30 7 1 8 5 CFG=3
M  V30 8 1 6 9
M  V30 9 1 6 10 CFG=1
M  V30 10 1 7 11
M  V30 11 1 9 12
M  V30 12 1 11 13 CFG=1
M  V30 13 1 13 14
M  V30 14 1 13 15
M  V30 15 1 6 8
M  V30 16 1 7 8
M  V30 17 1 11 12
M  V30 END BOND
M  V30 BEGIN COLLECTION
M  V30 MDLV30/STERAC1 ATOMS=(4 3 6 8 11)
M  V30 END COLLECTION
M  V30 END CTAB
M  END
>  <Molecule Name>
copaene

>  <Molecule Name 2>
copaene

>  <Database>
Essential Oil Database

>  <InChI>
InChI=1S/C15H24/c1-9(2)11-7-8-15(4)12-6-5-10(3)14(15)13(11)12/h5,9,11-14H,6-8H2,1-4H3/t11-,12-,13?,14+,15+/m1/s1

>  <InChI-Key>
VLXDPFLIRFYIME-XQYPFIQKSA-N

>  <Smiles>
CC(C)[C@@H]1C2[C@@H]3C(C)=CC[C@H]2[C@]3(C)CC1

>  <Molecular Formula>
C15H24

$$$$
aceteugenol
Actelion Java MolfileCreator 2.0

  0  0  0  0  0  0              0 V3000
M  V30 BEGIN CTAB
M  V30 COUNTS 15 15 0 0 0
M  V30 BEGIN ATOM
M  V30 1 O 0.0 0.0 0.0 0
M  V30 2 C -1.4907 -0.7117 0.0 0
M  V30 3 O -1.625 -2.1622 0.0 0
M  V30 4 C -2.9814 0.1477 0.0 0
M  V30 5 C -0.4029 -2.874 0.0 0
M  V30 6 C 0.8192 -2.001 0.0 0
M  V30 7 C -0.5372 -4.3245 0.0 0
M  V30 8 O 0.6849 -0.282 0.0 0
M  V30 9 C 2.0413 -2.7128 0.0 0
M  V30 10 C 0.6849 -5.0363 0.0 0
M  V30 11 C 1.907 0.5774 0.0 0
M  V30 12 C 1.907 -4.1633 0.0 0
M  V30 13 C 3.1292 -4.8751 0.0 0
M  V30 14 C 2.9949 -6.3255 0.0 0
M  V30 15 C 4.217 -7.0508 0.0 0
M  V30 END ATOM
M  V30 BEGIN BOND
M  V30 1 2 1 2
M  V30 2 1 2 3
M  V30 3 1 2 4
M  V30 4 1 3 5
M  V30 5 2 5 6
M  V30 6 1 5 7
M  V30 7 1 6 8
M  V30 8 1 6 9
M  V30 9 2 7 10
M  V30 10 1 8 11
M  V30 11 2 9 12
M  V30 12 1 12 13
M  V30 13 1 13 14
M  V30 14 2 14 15
M  V30 15 1 10 12
M  V30 END BOND
M  V30 END CTAB
M  END
>  <Molecule Name>
aceteugenol

>  <Molecule Name 2>
aceteugenol

>  <Database>
Essential Oil Database

>  <InChI>
InChI=1S/C12H14O3/c1-4-5-10-6-7-11(15-9(2)13)12(8-10)14-3/h4,6-8H,1,5H2,2-3H3

>  <InChI-Key>
SCCDQYPEOIRVGX-UHFFFAOYSA-N

>  <Smiles>
CC(Oc(ccc(CC=C)c1)c1OC)=O

>  <Molecular Formula>
C12H14O3

$$$$
octanethiol
Actelion Java MolfileCreator 2.0

  0  0  0  0  0  0              0 V3000
M  V30 BEGIN CTAB
M  V30 COUNTS 9 8 0 0 0
M  V30 BEGIN ATOM
M  V30 1 S 0.0 0.0 0.0 0
M  V30 2 C 1.2552 0.9165 0.0 0
M  V30 3 C 2.5105 0.1992 0.0 0
M  V30 4 C 3.7657 1.1157 0.0 0
M  V30 5 C 5.021 0.3984 0.0 0
M  V30 6 C 6.2762 1.315 0.0 0
M  V30 7 C 7.5315 0.5977 0.0 0
M  V30 8 C 8.7868 1.5142 0.0 0
M  V30 9 C 10.042 0.7969 0.0 0
M  V30 END ATOM
M  V30 BEGIN BOND
M  V30 1 1 1 2
M  V30 2 1 2 3
M  V30 3 1 3 4
M  V30 4 1 4 5
M  V30 5 1 5 6
M  V30 6 1 6 7
M  V30 7 1 7 8
M  V30 8 1 8 9
M  V30 END BOND
M  V30 END CTAB
M  END
>  <Molecule Name>
octanethiol

>  <Molecule Name 2>
octanethiol

>  <Database>
Essential Oil Database

>  <InChI>
InChI=1S/C8H18S/c1-2-3-4-5-6-7-8-9/h9H,2-8H2,1H3

>  <InChI-Key>
KZCOBXFFBQJQHH-UHFFFAOYSA-N

>  <Smiles>
CCCCCCCCS

>  <Molecular Formula>
C8H18S

$$$$
2-methyl-6-propylphenol
Actelion Java MolfileCreator 2.0

  0  0  0  0  0  0              0 V3000
M  V30 BEGIN CTAB
M  V30 COUNTS 11 11 0 0 0
M  V30 BEGIN ATOM
M  V30 1 O 0.0 0.0 0.0 0
M  V30 2 C -0.1287 -1.3909 0.0 0
M  V30 3 C -1.5584 -2.0736 0.0 0
M  V30 4 C 1.0432 -2.0736 0.0 0
M  V30 5 C -1.6872 -3.4646 0.0 0
M  V30 6 C -2.988 -1.2235 0.0 0
M  V30 7 C 0.9144 -3.4646 0.0 0
M  V30 8 C 2.2152 -1.2235 0.0 0
M  V30 9 C -0.5151 -4.1472 0.0 0
M  V30 10 C -3.1168 0.425 0.0 0
M  V30 11 C -4.5464 1.275 0.0 0
M  V30 END ATOM
M  V30 BEGIN BOND
M  V30 1 1 1 2
M  V30 2 2 2 3
M  V30 3 1 2 4
M  V30 4 1 3 5
M  V30 5 1 3 6
M  V30 6 2 4 7
M  V30 7 1 4 8
M  V30 8 2 5 9
M  V30 9 1 6 10
M  V30 10 1 10 11
M  V30 11 1 7 9
M  V30 END BOND
M  V30 END CTAB
M  END
>  <Molecule Name>
2-methyl-6-propylphenol

>  <Molecule Name 2>
2-methyl-6-propylphenol

>  <Database>
Essential Oil Database

>  <InChI>
InChI=1S/C10H14O/c1-3-5-9-7-4-6-8(2)10(9)11/h4,6-7,11H,3,5H2,1-2H3

>  <InChI-Key>
NXSQQKKFGJHACS-UHFFFAOYSA-N

>  <Smiles>
CCCc(cccc1C)c1O

>  <Molecular Formula>
C10H14O

$$$$
2-phenylethylphenylacetate
Actelion Java MolfileCreator 2.0

  0  0  0  0  0  0              0 V3000
M  V30 BEGIN CTAB
M  V30 COUNTS 18 19 0 0 0
M  V30 BEGIN ATOM
M  V30 1 O 0.0 0.0 0.0 0
M  V30 2 C -1.4438 -0.6091 0.0 0
M  V30 3 O -2.8876 0.3045 0.0 0 CHG=-1
M  V30 4 C -1.5566 -2.0191 0.0 0 CFG=1
M  V30 5 C -3.0004 -2.6395 0.0 0
M  V30 6 C -0.3384 -2.6395 0.0 0
M  V30 7 C -3.1132 -4.0495 0.0 0
M  V30 8 C -4.4443 -1.7145 0.0 0
M  V30 9 C 0.8798 -1.7145 0.0 0
M  V30 10 C -4.5571 -4.6473 0.0 0
M  V30 11 C -5.8881 -2.3236 0.0 0
M  V30 12 C 2.098 -2.3236 0.0 0
M  V30 13 C -6.0009 -3.7336 0.0 0
M  V30 14 C 3.3163 -1.3987 0.0 0
M  V30 15 C 1.9852 -3.7336 0.0 0
M  V30 16 C 4.5345 -2.0304 0.0 0
M  V30 17 C 3.2035 -4.3315 0.0 0
M  V30 18 C 4.4217 -3.4404 0.0 0
M  V30 END ATOM
M  V30 BEGIN BOND
M  V30 1 2 1 2
M  V30 2 1 2 3
M  V30 3 1 2 4
M  V30 4 1 4 5
M  V30 5 1 4 6 CFG=3
M  V30 6 2 5 7
M  V30 7 1 5 8
M  V30 8 1 6 9
M  V30 9 1 7 10
M  V30 10 2 8 11
M  V30 11 1 9 12
M  V30 12 2 10 13
M  V30 13 2 12 14
M  V30 14 1 12 15
M  V30 15 1 14 16
M  V30 16 2 15 17
M  V30 17 2 16 18
M  V30 18 1 11 13
M  V30 19 1 17 18
M  V30 END BOND
M  V30 BEGIN COLLECTION
M  V30 MDLV30/STERAC1 ATOMS=(1 4)
M  V30 END COLLECTION
M  V30 END CTAB
M  END
>  <Molecule Name>
2-phenylethylphenylacetate

>  <Molecule Name 2>
2-phenylethylphenylacetate

>  <Database>
Essential Oil Database

>  <InChI>
InChI=1S/C16H16O2/c17-16(18)15(14-9-5-2-6-10-14)12-11-13-7-3-1-4-8-13/h1-10,15H,11-12H2,(H,17,18)/p-1/t15-/m1/s1

>  <InChI-Key>
FZFIAPLRITZLME-OAHLLOKOSA-M

>  <Smiles>
[O-]C(C(CCc1ccccc1)c1ccccc1)=O

>  <Molecular Formula>
C16H15O2

$$$$
2-phenylethylacetate
Actelion Java MolfileCreator 2.0

  0  0  0  0  0  0              0 V3000
M  V30 BEGIN CTAB
M  V30 COUNTS 12 12 0 0 0
M  V30 BEGIN ATOM
M  V30 1 O 0.0 0.0 0.0 0
M  V30 2 C -0.1339 1.7149 0.0 0
M  V30 3 O -1.6212 2.5858 0.0 0 CHG=-1
M  V30 4 C 1.0852 2.5858 0.0 0
M  V30 5 C 2.3045 1.8623 0.0 0
M  V30 6 C 3.5237 2.7332 0.0 0
M  V30 7 C 4.743 2.0097 0.0 0
M  V30 8 C 5.9622 2.8806 0.0 0
M  V30 9 C 4.609 0.5627 0.0 0
M  V30 10 C 7.1815 2.1571 0.0 0
M  V30 11 C 5.8283 -0.1473 0.0 0
M  V30 12 C 7.0475 0.7101 0.0 0
M  V30 END ATOM
M  V30 BEGIN BOND
M  V30 1 2 1 2
M  V30 2 1 2 3
M  V30 3 1 2 4
M  V30 4 1 4 5
M  V30 5 1 5 6
M  V30 6 1 6 7
M  V30 7 2 7 8
M  V30 8 1 7 9
M  V30 9 1 8 10
M  V30 10 2 9 11
M  V30 11 2 10 12
M  V30 12 1 11 12
M  V30 END BOND
M  V30 END CTAB
M  END
>  <Molecule Name>
2-phenylethylacetate

>  <Molecule Name 2>
2-phenylethylacetate

>  <Database>
Essential Oil Database

>  <InChI>
InChI=1S/C10H12O2/c11-10(12)8-4-7-9-5-2-1-3-6-9/h1-3,5-6H,4,7-8H2,(H,11,12)/p-1

>  <InChI-Key>
OBKXEAXTFZPCHS-UHFFFAOYSA-M

>  <Smiles>
[O-]C(CCCc1ccccc1)=O

>  <Molecular Formula>
C10H11O2

$$$$
methyl phenylacetate
Actelion Java MolfileCreator 2.0

  0  0  0  0  0  0              0 V3000
M  V30 BEGIN CTAB
M  V30 COUNTS 11 11 0 0 0
M  V30 BEGIN ATOM
M  V30 1 O 0.0 0.0 0.0 0
M  V30 2 C 1.1952 0.8537 0.0 0
M  V30 3 O 1.0639 2.535 0.0 0
M  V30 4 C 2.3905 0.1576 0.0 0
M  V30 5 C -0.394 3.3888 0.0 0
M  V30 6 C 2.2592 -1.2609 0.0 0
M  V30 7 C 3.4545 -1.9571 0.0 0
M  V30 8 C 0.8012 -1.9571 0.0 0
M  V30 9 C 3.3231 -3.3757 0.0 0
M  V30 10 C 0.6698 -3.3757 0.0 0
M  V30 11 C 1.8651 -4.0718 0.0 0
M  V30 END ATOM
M  V30 BEGIN BOND
M  V30 1 2 1 2
M  V30 2 1 2 3
M  V30 3 1 2 4
M  V30 4 1 3 5
M  V30 5 1 4 6
M  V30 6 2 6 7
M  V30 7 1 6 8
M  V30 8 1 7 9
M  V30 9 2 8 10
M  V30 10 2 9 11
M  V30 11 1 10 11
M  V30 END BOND
M  V30 END CTAB
M  END
>  <Molecule Name>
methyl phenylacetate

>  <Molecule Name 2>
methyl phenylacetate

>  <Database>
Essential Oil Database

>  <InChI>
InChI=1S/C9H10O2/c1-11-9(10)7-8-5-3-2-4-6-8/h2-6H,7H2,1H3

>  <InChI-Key>
CRZQGDNQQAALAY-UHFFFAOYSA-N

>  <Smiles>
COC(Cc1ccccc1)=O

>  <Molecular Formula>
C9H10O2

$$$$
beta-cadinene
Actelion Java MolfileCreator 2.0

  0  0  0  0  0  0              0 V3000
M  V30 BEGIN CTAB
M  V30 COUNTS 15 16 0 0 0
M  V30 BEGIN ATOM
M  V30 1 C 0.0 0.0 0.0 0
M  V30 2 C -1.4893 -0.7111 0.0 0
M  V30 3 C 1.221 -0.7111 0.0 0 CFG=2
M  V30 4 C -0.1341 1.7174 0.0 0
M  V30 5 C -1.6235 -2.1602 0.0 0
M  V30 6 C 1.0868 -2.1602 0.0 0 CFG=1
M  V30 7 C 2.442 0.1475 0.0 0
M  V30 8 C -0.4025 -2.8848 0.0 0 CFG=1
M  V30 9 C 2.3078 -2.8848 0.0 0
M  V30 10 C 3.663 -0.5635 0.0 0
M  V30 11 C -0.5367 -4.3339 0.0 0
M  V30 12 C 3.5288 -1.9992 0.0 0
M  V30 13 C 0.6843 -5.0585 0.0 0
M  V30 14 C -2.026 -5.0585 0.0 0
M  V30 15 C 4.7498 -2.7238 0.0 0
M  V30 END ATOM
M  V30 BEGIN BOND
M  V30 1 2 1 2
M  V30 2 1 1 3
M  V30 3 1 1 4
M  V30 4 1 2 5
M  V30 5 1 3 6
M  V30 6 1 3 7 CFG=1
M  V30 7 1 5 8
M  V30 8 1 6 9 CFG=3
M  V30 9 1 7 10
M  V30 10 1 8 11 CFG=1
M  V30 11 1 9 12
M  V30 12 1 11 13
M  V30 13 1 11 14
M  V30 14 1 12 15
M  V30 15 1 6 8
M  V30 16 2 10 12
M  V30 END BOND
M  V30 BEGIN COLLECTION
M  V30 MDLV30/STERAC1 ATOMS=(3 3 6 8)
M  V30 END COLLECTION
M  V30 END CTAB
M  END
>  <Molecule Name>
beta-cadinene

>  <Molecule Name 2>
beta-cadinene

>  <Database>
Essential Oil Database

>  <InChI>
InChI=1S/C15H24/c1-10(2)13-8-6-12(4)14-7-5-11(3)9-15(13)14/h5-6,10,13-15H,7-9H2,1-4H3/t13-,14-,15-/m1/s1

>  <InChI-Key>
USDOQCCMRDNVAH-RBSFLKMASA-N

>  <Smiles>
CC(C)[C@@H]1[C@@H](CC(C)=CC2)[C@H]2C(C)=CC1

>  <Molecular Formula>
C15H24

$$$$
isopulegol
Actelion Java MolfileCreator 2.0

  0  0  0  0  0  0              0 V3000
M  V30 BEGIN CTAB
M  V30 COUNTS 11 11 0 0 0
M  V30 BEGIN ATOM
M  V30 1 O 0.0 0.0 0.0 0
M  V30 2 C 1.1822 0.8444 0.0 0
M  V30 3 C 2.3644 0.1558 0.0 0
M  V30 4 C 1.0522 2.5073 0.0 0
M  V30 5 C 2.2344 -1.2471 0.0 0
M  V30 6 C 3.5466 1.0003 0.0 0
M  V30 7 C 2.2344 3.3647 0.0 0
M  V30 8 C 0.7924 -1.9486 0.0 0
M  V30 9 C 3.4166 -1.9486 0.0 0
M  V30 10 C 3.4166 2.6632 0.0 0
M  V30 11 C 2.1045 5.0276 0.0 0
M  V30 END ATOM
M  V30 BEGIN BOND
M  V30 1 1 1 2
M  V30 2 1 2 3
M  V30 3 1 2 4
M  V30 4 1 3 5
M  V30 5 1 3 6
M  V30 6 1 4 7
M  V30 7 2 5 8
M  V30 8 1 5 9
M  V30 9 1 6 10
M  V30 10 1 7 11
M  V30 11 1 7 10
M  V30 END BOND
M  V30 END CTAB
M  END
>  <Molecule Name>
isopulegol

>  <Molecule Name 2>
isopulegol

>  <Database>
Essential Oil Database

>  <InChI>
InChI=1S/C10H18O/c1-7(2)9-5-4-8(3)6-10(9)11/h8-11H,1,4-6H2,2-3H3

>  <InChI-Key>
ZYTMANIQRDEHIO-UHFFFAOYSA-N

>  <Smiles>
CC(CCC1C(C)=C)CC1O

>  <Molecular Formula>
C10H18O

$$$$
(+)-alpha-pinene
Actelion Java MolfileCreator 2.0

  0  0  0  0  0  0              0 V3000
M  V30 BEGIN CTAB
M  V30 COUNTS 10 11 0 0 0
M  V30 BEGIN ATOM
M  V30 1 C 0.0 0.0 0.0 0
M  V30 2 C 0.6979 -1.1983 0.0 0
M  V30 3 C -1.6856 0.1448 0.0 0 CFG=2
M  V30 4 C 0.7111 1.4617 0.0 0
M  V30 5 C -0.158 -2.3967 0.0 0
M  V30 6 C -2.5416 -1.0535 0.0 0
M  V30 7 C -1.9622 -1.1193 0.0 0
M  V30 8 C -1.8436 -2.2519 0.0 0 CFG=1
M  V30 9 C -4.0297 -0.1975 0.0 0
M  V30 10 C -4.0297 -1.6988 0.0 0
M  V30 END ATOM
M  V30 BEGIN BOND
M  V30 1 2 1 2
M  V30 2 1 3 1 CFG=1
M  V30 3 1 1 4
M  V30 4 1 2 5
M  V30 5 1 3 6
M  V30 6 1 3 7
M  V30 7 1 8 5 CFG=1
M  V30 8 1 6 9
M  V30 9 1 6 10
M  V30 10 1 6 8
M  V30 11 1 7 8
M  V30 END BOND
M  V30 BEGIN COLLECTION
M  V30 MDLV30/STERAC1 ATOMS=(2 3 8)
M  V30 END COLLECTION
M  V30 END CTAB
M  END
>  <Molecule Name>
(+)-alpha-pinene

>  <Molecule Name 2>
(+)-alpha-pinene

>  <Database>
Essential Oil Database

>  <InChI>
InChI=1S/C10H16/c1-7-4-5-8-6-9(7)10(8,2)3/h4,8-9H,5-6H2,1-3H3/t8-,9-/m1/s1

>  <InChI-Key>
GRWFGVWFFZKLTI-RKDXNWHRSA-N

>  <Smiles>
CC1(C)[C@H]2C(C)=CC[C@@H]1C2

>  <Molecular Formula>
C10H16

$$$$
(-)-beta-pinene
Actelion Java MolfileCreator 2.0

  0  0  0  0  0  0              0 V3000
M  V30 BEGIN CTAB
M  V30 COUNTS 10 11 0 0 0
M  V30 BEGIN ATOM
M  V30 1 C 0.0 0.0 0.0 0
M  V30 2 C 0.6648 -1.1203 0.0 0
M  V30 3 C -1.5758 0.1231 0.0 0 CFG=2
M  V30 4 C 0.6648 1.3665 0.0 0
M  V30 5 C -2.3884 1.4897 0.0 0
M  V30 6 C -1.3665 1.4897 0.0 0
M  V30 7 C -0.1354 2.7331 0.0 0
M  V30 8 C -1.7236 2.8563 0.0 0 CFG=1
M  V30 9 C -3.595 2.5115 0.0 0
M  V30 10 C -3.595 0.714 0.0 0
M  V30 END ATOM
M  V30 BEGIN BOND
M  V30 1 2 1 2
M  V30 2 1 3 1 CFG=3
M  V30 3 1 1 4
M  V30 4 1 3 5
M  V30 5 1 3 6
M  V30 6 1 4 7
M  V30 7 1 5 8
M  V30 8 1 5 9
M  V30 9 1 5 10
M  V30 10 1 6 8
M  V30 11 1 8 7 CFG=3
M  V30 END BOND
M  V30 BEGIN COLLECTION
M  V30 MDLV30/STERAC1 ATOMS=(2 3 8)
M  V30 END COLLECTION
M  V30 END CTAB
M  END
>  <Molecule Name>
(-)-beta-pinene

>  <Molecule Name 2>
(-)-beta-pinene

>  <Database>
Essential Oil Database

>  <InChI>
InChI=1S/C10H16/c1-7-4-5-8-6-9(7)10(8,2)3/h8-9H,1,4-6H2,2-3H3/t8-,9-/m1/s1

>  <InChI-Key>
WTARULDDTDQWMU-RKDXNWHRSA-N

>  <Smiles>
CC(C)([C@@H](C1)CC2)[C@H]1C2=C

>  <Molecular Formula>
C10H16

$$$$
isopulegyl acetate
Actelion Java MolfileCreator 2.0

  0  0  0  0  0  0              0 V3000
M  V30 BEGIN CTAB
M  V30 COUNTS 14 14 0 0 0
M  V30 BEGIN ATOM
M  V30 1 O 0.0 0.0 0.0 0
M  V30 2 C -0.1307 -1.4124 0.0 0
M  V30 3 O 1.0593 -2.1055 0.0 0
M  V30 4 C -1.5824 -2.1055 0.0 0
M  V30 5 C 2.2493 -1.2554 0.0 0 CFG=2
M  V30 6 C 3.4394 -1.9485 0.0 0 CFG=1
M  V30 7 C 2.1186 0.4184 0.0 0
M  V30 8 C 3.3086 -3.361 0.0 0
M  V30 9 C 4.6295 -1.0985 0.0 0
M  V30 10 C 3.3086 1.2685 0.0 0 CFG=2
M  V30 11 C 4.4987 -4.0672 0.0 0
M  V30 12 C 1.857 -4.0672 0.0 0
M  V30 13 C 4.4987 0.5754 0.0 0
M  V30 14 C 3.1779 2.9425 0.0 0
M  V30 END ATOM
M  V30 BEGIN BOND
M  V30 1 2 1 2
M  V30 2 1 2 3
M  V30 3 1 2 4
M  V30 4 1 5 3 CFG=1
M  V30 5 1 5 6
M  V30 6 1 5 7
M  V30 7 1 6 8 CFG=3
M  V30 8 1 6 9
M  V30 9 1 7 10
M  V30 10 2 8 11
M  V30 11 1 8 12
M  V30 12 1 9 13
M  V30 13 1 10 14 CFG=1
M  V30 14 1 10 13
M  V30 END BOND
M  V30 BEGIN COLLECTION
M  V30 MDLV30/STERAC1 ATOMS=(3 5 6 10)
M  V30 END COLLECTION
M  V30 END CTAB
M  END
>  <Molecule Name>
isopulegyl acetate

>  <Molecule Name 2>
isopulegyl acetate

>  <Database>
Essential Oil Database

>  <InChI>
InChI=1S/C12H20O2/c1-8(2)11-6-5-9(3)7-12(11)14-10(4)13/h9,11-12H,1,5-7H2,2-4H3/t9-,11+,12-/m0/s1

>  <InChI-Key>
HLHIVJRLODSUCI-WCQGTBRESA-N

>  <Smiles>
C[C@@H](CC[C@@H]1C(C)=C)C[C@@H]1OC(C)=O

>  <Molecular Formula>
C12H20O2

$$$$
2,4-dimethyl-3-pentanone
Actelion Java MolfileCreator 2.0

  0  0  0  0  0  0              0 V3000
M  V30 BEGIN CTAB
M  V30 COUNTS 8 7 0 0 0
M  V30 BEGIN ATOM
M  V30 1 O 0.0 0.0 0.0 0
M  V30 2 C -1.5718 0.1228 0.0 0
M  V30 3 C -2.3823 1.4859 0.0 0
M  V30 4 C -2.3823 -0.9946 0.0 0
M  V30 5 C -1.7315 2.8489 0.0 0
M  V30 6 C -3.9542 1.6087 0.0 0
M  V30 7 C -1.7315 -2.1121 0.0 0
M  V30 8 C -3.9542 -0.8718 0.0 0
M  V30 END ATOM
M  V30 BEGIN BOND
M  V30 1 2 1 2
M  V30 2 1 2 3
M  V30 3 1 2 4
M  V30 4 1 3 5
M  V30 5 1 3 6
M  V30 6 1 4 7
M  V30 7 1 4 8
M  V30 END BOND
M  V30 END CTAB
M  END
>  <Molecule Name>
2,4-dimethyl-3-pentanone

>  <Molecule Name 2>
2,4-dimethyl-3-pentanone

>  <Database>
Essential Oil Database

>  <InChI>
InChI=1S/C7H14O/c1-5(2)7(8)6(3)4/h5-6H,1-4H3

>  <InChI-Key>
HXVNBWAKAOHACI-UHFFFAOYSA-N

>  <Smiles>
CC(C)C(C(C)C)=O

>  <Molecular Formula>
C7H14O

$$$$
2,5-dimethyl-4-hydroxy-3(2h)-furanone
Actelion Java MolfileCreator 2.0

  0  0  0  0  0  0              0 V3000
M  V30 BEGIN CTAB
M  V30 COUNTS 9 9 0 0 0
M  V30 BEGIN ATOM
M  V30 1 O 0.0 0.0 0.0 0
M  V30 2 C 0.736 1.2973 0.0 0
M  V30 3 C 0.1247 2.8192 0.0 0
M  V30 4 C 2.0832 1.4221 0.0 0 CFG=1
M  V30 5 O -1.3971 3.4305 0.0 0
M  V30 6 C 1.1726 3.7673 0.0 0
M  V30 7 O 2.445 2.944 0.0 0
M  V30 8 C 2.8192 0.3742 0.0 0
M  V30 9 C 1.0478 5.3641 0.0 0
M  V30 END ATOM
M  V30 BEGIN BOND
M  V30 1 2 1 2
M  V30 2 1 2 3
M  V30 3 1 2 4
M  V30 4 1 3 5
M  V30 5 2 3 6
M  V30 6 1 4 7
M  V30 7 1 4 8 CFG=1
M  V30 8 1 6 9
M  V30 9 1 6 7
M  V30 END BOND
M  V30 BEGIN COLLECTION
M  V30 MDLV30/STERAC1 ATOMS=(1 4)
M  V30 END COLLECTION
M  V30 END CTAB
M  END
>  <Molecule Name>
2,5-dimethyl-4-hydroxy-3(2h)-furanone

>  <Molecule Name 2>
2,5-dimethyl-4-hydroxy-3(2h)-furanone

>  <Database>
Essential Oil Database

>  <InChI>
InChI=1S/C6H8O3/c1-3-5(7)6(8)4(2)9-3/h3,8H,1-2H3/t3-/m0/s1

>  <InChI-Key>
INAXVXBDKKUCGI-VKHMYHEASA-N

>  <Smiles>
CC(C1=O)OC(C)=C1O

>  <Molecular Formula>
C6H8O3

$$$$
2-ethylhexanoic acid
Actelion Java MolfileCreator 2.0

  0  0  0  0  0  0              0 V3000
M  V30 BEGIN CTAB
M  V30 COUNTS 10 9 0 0 0
M  V30 BEGIN ATOM
M  V30 1 O 0.0 0.0 0.0 0
M  V30 2 C 0.6588 1.3543 0.0 0
M  V30 3 O 1.9765 1.4763 0.0 0
M  V30 4 C -0.1342 2.7086 0.0 0 CFG=2
M  V30 5 C -1.6959 2.8306 0.0 0
M  V30 6 C 0.5246 4.0629 0.0 0
M  V30 7 C -2.4889 4.1849 0.0 0
M  V30 8 C 1.8423 4.1849 0.0 0
M  V30 9 C -4.0507 4.3069 0.0 0
M  V30 10 C -4.8437 5.6612 0.0 0
M  V30 END ATOM
M  V30 BEGIN BOND
M  V30 1 2 1 2
M  V30 2 1 2 3
M  V30 3 1 2 4
M  V30 4 1 4 5 CFG=3
M  V30 5 1 4 6
M  V30 6 1 5 7
M  V30 7 1 6 8
M  V30 8 1 7 9
M  V30 9 1 9 10
M  V30 END BOND
M  V30 BEGIN COLLECTION
M  V30 MDLV30/STERAC1 ATOMS=(1 4)
M  V30 END COLLECTION
M  V30 END CTAB
M  END
>  <Molecule Name>
2-ethylhexanoic acid

>  <Molecule Name 2>
2-ethylhexanoic acid

>  <Database>
Essential Oil Database

>  <InChI>
InChI=1S/C8H16O2/c1-3-5-6-7(4-2)8(9)10/h7H,3-6H2,1-2H3,(H,9,10)/t7-/m0/s1

>  <InChI-Key>
OBETXYAYXDNJHR-ZETCQYMHSA-N

>  <Smiles>
CCCCC(CC)C(O)=O

>  <Molecular Formula>
C8H16O2

$$$$
2-phenoxyethanol
Actelion Java MolfileCreator 2.0

  0  0  0  0  0  0              0 V3000
M  V30 BEGIN CTAB
M  V30 COUNTS 10 10 0 0 0
M  V30 BEGIN ATOM
M  V30 1 O 0.0 0.0 0.0 0
M  V30 2 C -0.1284 -1.3873 0.0 0
M  V30 3 C -1.4259 0.8349 0.0 0
M  V30 4 C 1.0405 -2.0682 0.0 0
M  V30 5 C -1.5543 -2.0682 0.0 0
M  V30 6 C -1.5543 2.4793 0.0 0
M  V30 7 C 0.912 -3.4556 0.0 0
M  V30 8 C -1.6828 -3.4556 0.0 0
M  V30 9 O -2.9803 3.3143 0.0 0
M  V30 10 C -0.5138 -4.1364 0.0 0
M  V30 END ATOM
M  V30 BEGIN BOND
M  V30 1 1 1 2
M  V30 2 1 1 3
M  V30 3 2 2 4
M  V30 4 1 2 5
M  V30 5 1 3 6
M  V30 6 1 4 7
M  V30 7 2 5 8
M  V30 8 1 6 9
M  V30 9 2 7 10
M  V30 10 1 8 10
M  V30 END BOND
M  V30 END CTAB
M  END
>  <Molecule Name>
2-phenoxyethanol

>  <Molecule Name 2>
2-phenoxyethanol

>  <Database>
Essential Oil Database

>  <InChI>
InChI=1S/C8H10O2/c9-6-7-10-8-4-2-1-3-5-8/h1-5,9H,6-7H2

>  <InChI-Key>
QCDWFXQBSFUVSP-UHFFFAOYSA-N

>  <Smiles>
OCCOc1ccccc1

>  <Molecular Formula>
C8H10O2

$$$$
3-furfural
Actelion Java MolfileCreator 2.0

  0  0  0  0  0  0              0 V3000
M  V30 BEGIN CTAB
M  V30 COUNTS 8 8 0 0 0
M  V30 BEGIN ATOM
M  V30 1 O 0.0 0.0 0.0 0
M  V30 2 C 1.2232 -0.6809 0.0 0
M  V30 3 C 1.0971 -2.1186 0.0 0
M  V30 4 C -0.29 -2.9131 0.0 0
M  V30 5 C 2.2321 -2.9131 0.0 0
M  V30 6 O 0.0756 -4.275 0.0 0
M  V30 7 C -1.9042 -2.2951 0.0 0
M  V30 8 C 1.6141 -4.275 0.0 0
M  V30 END ATOM
M  V30 BEGIN BOND
M  V30 1 2 1 2
M  V30 2 1 2 3
M  V30 3 2 3 4
M  V30 4 1 3 5
M  V30 5 1 4 6
M  V30 6 1 4 7
M  V30 7 2 5 8
M  V30 8 1 6 8
M  V30 END BOND
M  V30 END CTAB
M  END
>  <Molecule Name>
3-furfural

>  <Molecule Name 2>
3-furfural

>  <Database>
Essential Oil Database

>  <InChI>
InChI=1S/C6H6O2/c1-5-6(4-7)2-3-8-5/h2-4H,1H3

>  <InChI-Key>
WBFUBNWKSDINIX-UHFFFAOYSA-N

>  <Smiles>
Cc1c(C=O)cc[o]1

>  <Molecular Formula>
C6H6O2

$$$$
3-heptanol
Actelion Java MolfileCreator 2.0

  0  0  0  0  0  0              0 V3000
M  V30 BEGIN CTAB
M  V30 COUNTS 8 7 0 0 0
M  V30 BEGIN ATOM
M  V30 1 O 0.0 0.0 0.0 0
M  V30 2 C -0.1128 -1.4106 0.0 0 CFG=2
M  V30 3 C 1.1059 -2.02 0.0 0
M  V30 4 C -1.5573 -2.02 0.0 0
M  V30 5 C 2.3247 -1.0946 0.0 0
M  V30 6 C -3.0019 -1.0946 0.0 0
M  V30 7 C 3.5436 -1.7379 0.0 0
M  V30 8 C 4.7624 -0.8125 0.0 0
M  V30 END ATOM
M  V30 BEGIN BOND
M  V30 1 1 2 1 CFG=3
M  V30 2 1 2 3
M  V30 3 1 2 4
M  V30 4 1 3 5
M  V30 5 1 4 6
M  V30 6 1 5 7
M  V30 7 1 7 8
M  V30 END BOND
M  V30 BEGIN COLLECTION
M  V30 MDLV30/STERAC1 ATOMS=(1 2)
M  V30 END COLLECTION
M  V30 END CTAB
M  END
>  <Molecule Name>
3-heptanol

>  <Molecule Name 2>
3-heptanol

>  <Database>
Essential Oil Database

>  <InChI>
InChI=1S/C7H16O/c1-3-5-6-7(8)4-2/h7-8H,3-6H2,1-2H3/t7-/m0/s1

>  <InChI-Key>
RZKSECIXORKHQS-ZETCQYMHSA-N

>  <Smiles>
CCCCC(CC)O

>  <Molecular Formula>
C7H16O

$$$$
3-heptanone
Actelion Java MolfileCreator 2.0

  0  0  0  0  0  0              0 V3000
M  V30 BEGIN CTAB
M  V30 COUNTS 8 7 0 0 0
M  V30 BEGIN ATOM
M  V30 1 O 0.0 0.0 0.0 0
M  V30 2 C -0.1128 -1.4106 0.0 0
M  V30 3 C 1.1059 -2.02 0.0 0
M  V30 4 C -1.5573 -2.02 0.0 0
M  V30 5 C 2.3247 -1.0946 0.0 0
M  V30 6 C -3.0019 -1.0946 0.0 0
M  V30 7 C 3.5436 -1.7379 0.0 0
M  V30 8 C 4.7624 -0.8125 0.0 0
M  V30 END ATOM
M  V30 BEGIN BOND
M  V30 1 2 1 2
M  V30 2 1 2 3
M  V30 3 1 2 4
M  V30 4 1 3 5
M  V30 5 1 4 6
M  V30 6 1 5 7
M  V30 7 1 7 8
M  V30 END BOND
M  V30 END CTAB
M  END
>  <Molecule Name>
3-heptanone

>  <Molecule Name 2>
3-heptanone

>  <Database>
Essential Oil Database

>  <InChI>
InChI=1S/C7H14O/c1-3-5-6-7(8)4-2/h3-6H2,1-2H3

>  <InChI-Key>
NGAZZOYFWWSOGK-UHFFFAOYSA-N

>  <Smiles>
CCCCC(CC)=O

>  <Molecular Formula>
C7H14O

$$$$
3-methylbut-2-enyl valerate
Actelion Java MolfileCreator 2.0

  0  0  0  0  0  0              0 V3000
M  V30 BEGIN CTAB
M  V30 COUNTS 12 11 0 0 0
M  V30 BEGIN ATOM
M  V30 1 O 0.0 0.0 0.0 0
M  V30 2 C -0.1279 1.6374 0.0 0
M  V30 3 O 1.0362 2.469 0.0 0
M  V30 4 C -1.5479 2.469 0.0 0
M  V30 5 C 2.2003 1.7781 0.0 0
M  V30 6 C -2.9679 1.7781 0.0 0
M  V30 7 C 3.3645 2.6225 0.0 0
M  V30 8 C -4.3879 2.6225 0.0 0
M  V30 9 C 4.5286 1.9317 0.0 0
M  V30 10 C -5.8079 1.9317 0.0 0
M  V30 11 C 5.6927 2.776 0.0 0
M  V30 12 C 4.4007 0.55 0.0 0
M  V30 END ATOM
M  V30 BEGIN BOND
M  V30 1 2 1 2
M  V30 2 1 2 3
M  V30 3 1 2 4
M  V30 4 1 3 5
M  V30 5 1 4 6
M  V30 6 1 5 7
M  V30 7 1 6 8
M  V30 8 2 7 9
M  V30 9 1 8 10
M  V30 10 1 9 11
M  V30 11 1 9 12
M  V30 END BOND
M  V30 END CTAB
M  END
>  <Molecule Name>
3-methylbut-2-enyl valerate

>  <Molecule Name 2>
3-methylbut-2-enyl valerate

>  <Database>
Essential Oil Database

>  <InChI>
InChI=1S/C10H18O2/c1-4-5-6-10(11)12-8-7-9(2)3/h7H,4-6,8H2,1-3H3

>  <InChI-Key>
PJMJLIYPHMEZSG-UHFFFAOYSA-N

>  <Smiles>
CCCCC(OCC=C(C)C)=O

>  <Molecular Formula>
C10H18O2

$$$$
4-furfural
Actelion Java MolfileCreator 2.0

  0  0  0  0  0  0              0 V3000
M  V30 BEGIN CTAB
M  V30 COUNTS 8 8 0 0 0
M  V30 BEGIN ATOM
M  V30 1 O 0.0 0.0 0.0 0
M  V30 2 C 1.2398 -0.6256 0.0 0
M  V30 3 C 1.126 -2.0588 0.0 0
M  V30 4 C 2.2863 -2.9005 0.0 0
M  V30 5 C -0.2616 -2.9005 0.0 0
M  V30 6 O 1.7289 -4.2655 0.0 0
M  V30 7 C 0.0682 -4.2655 0.0 0
M  V30 8 C -1.0009 -5.4257 0.0 0
M  V30 END ATOM
M  V30 BEGIN BOND
M  V30 1 2 1 2
M  V30 2 1 2 3
M  V30 3 2 3 4
M  V30 4 1 3 5
M  V30 5 1 4 6
M  V30 6 2 5 7
M  V30 7 1 7 8
M  V30 8 1 6 7
M  V30 END BOND
M  V30 END CTAB
M  END
>  <Molecule Name>
4-furfural

>  <Molecule Name 2>
4-furfural

>  <Database>
Essential Oil Database

>  <InChI>
InChI=1S/C6H6O2/c1-5-2-6(3-7)4-8-5/h2-4H,1H3

>  <InChI-Key>
YEXWWHZOVRNTOY-UHFFFAOYSA-N

>  <Smiles>
Cc1cc(C=O)c[o]1

>  <Molecular Formula>
C6H6O2

$$$$
4-heptanone
Actelion Java MolfileCreator 2.0

  0  0  0  0  0  0              0 V3000
M  V30 BEGIN CTAB
M  V30 COUNTS 8 7 0 0 0
M  V30 BEGIN ATOM
M  V30 1 O 0.0 0.0 0.0 0
M  V30 2 C -0.125 1.6006 0.0 0
M  V30 3 C -1.5131 2.4134 0.0 0
M  V30 4 C 1.0129 2.4134 0.0 0
M  V30 5 C -2.9011 1.7382 0.0 0
M  V30 6 C 2.1508 1.7382 0.0 0
M  V30 7 C -4.2892 2.5635 0.0 0
M  V30 8 C 3.2888 2.5635 0.0 0
M  V30 END ATOM
M  V30 BEGIN BOND
M  V30 1 2 1 2
M  V30 2 1 2 3
M  V30 3 1 2 4
M  V30 4 1 3 5
M  V30 5 1 4 6
M  V30 6 1 5 7
M  V30 7 1 6 8
M  V30 END BOND
M  V30 END CTAB
M  END
>  <Molecule Name>
4-heptanone

>  <Molecule Name 2>
4-heptanone

>  <Database>
Essential Oil Database

>  <InChI>
InChI=1S/C7H14O/c1-3-5-7(8)6-4-2/h3-6H2,1-2H3

>  <InChI-Key>
HCFAJYNVAYBARA-UHFFFAOYSA-N

>  <Smiles>
CCCC(CCC)=O

>  <Molecular Formula>
C7H14O

$$$$
4-propylguaiacol
Actelion Java MolfileCreator 2.0

  0  0  0  0  0  0              0 V3000
M  V30 BEGIN CTAB
M  V30 COUNTS 12 12 0 0 0
M  V30 BEGIN ATOM
M  V30 1 O 0.0 0.0 0.0 0
M  V30 2 C -0.115 -1.438 0.0 0
M  V30 3 C -1.4725 0.9318 0.0 0
M  V30 4 C -1.5875 -2.0477 0.0 0
M  V30 5 C 1.1274 -2.0477 0.0 0
M  V30 6 O -3.06 -1.1158 0.0 0
M  V30 7 C -1.7026 -3.4857 0.0 0
M  V30 8 C 1.0123 -3.4857 0.0 0
M  V30 9 C -0.4601 -4.0954 0.0 0
M  V30 10 C 2.2548 -4.0954 0.0 0
M  V30 11 C 2.1397 -5.5334 0.0 0
M  V30 12 C 3.3822 -6.1892 0.0 0
M  V30 END ATOM
M  V30 BEGIN BOND
M  V30 1 1 1 2
M  V30 2 1 1 3
M  V30 3 2 2 4
M  V30 4 1 2 5
M  V30 5 1 4 6
M  V30 6 1 4 7
M  V30 7 2 5 8
M  V30 8 2 7 9
M  V30 9 1 8 10
M  V30 10 1 10 11
M  V30 11 1 11 12
M  V30 12 1 8 9
M  V30 END BOND
M  V30 END CTAB
M  END
>  <Molecule Name>
4-propylguaiacol

>  <Molecule Name 2>
4-propylguaiacol

>  <Database>
Essential Oil Database

>  <InChI>
InChI=1S/C10H14O2/c1-3-4-8-5-6-9(11)10(7-8)12-2/h5-7,11H,3-4H2,1-2H3

>  <InChI-Key>
PXIKRTCSSLJURC-UHFFFAOYSA-N

>  <Smiles>
CCCc(cc1)cc(OC)c1O

>  <Molecular Formula>
C10H14O2

$$$$
5-hepten-2-one
Actelion Java MolfileCreator 2.0

  0  0  0  0  0  0              0 V3000
M  V30 BEGIN CTAB
M  V30 COUNTS 8 7 0 0 0
M  V30 BEGIN ATOM
M  V30 1 O 0.0 0.0 0.0 0
M  V30 2 C 0.6909 -1.1862 0.0 0
M  V30 3 C -0.1433 -2.3725 0.0 0
M  V30 4 C 2.0987 -1.0559 0.0 0
M  V30 5 C -1.812 -2.2421 0.0 0
M  V30 6 C -2.6593 -3.4284 0.0 0
M  V30 7 C -4.3279 -3.2981 0.0 0
M  V30 8 C -5.1752 -4.4843 0.0 0
M  V30 END ATOM
M  V30 BEGIN BOND
M  V30 1 2 1 2
M  V30 2 1 2 3
M  V30 3 1 2 4
M  V30 4 1 3 5
M  V30 5 1 5 6
M  V30 6 2 6 7
M  V30 7 1 7 8
M  V30 END BOND
M  V30 END CTAB
M  END
>  <Molecule Name>
5-hepten-2-one

>  <Molecule Name 2>
5-hepten-2-one

>  <Database>
Essential Oil Database

>  <InChI>
InChI=1S/C7H12O/c1-3-4-5-6-7(2)8/h3-4H,5-6H2,1-2H3/b4-3+

>  <InChI-Key>
RTYRONIMTRDBLT-ONEGZZNKSA-N

>  <Smiles>
C/C=C/CCC(C)=O

>  <Molecular Formula>
C7H12O

$$$$
amyl isobutyrate
Actelion Java MolfileCreator 2.0

  0  0  0  0  0  0              0 V3000
M  V30 BEGIN CTAB
M  V30 COUNTS 11 10 0 0 0
M  V30 BEGIN ATOM
M  V30 1 O 0.0 0.0 0.0 0
M  V30 2 C -0.1142 -1.4275 0.0 0
M  V30 3 O 1.1191 -2.0556 0.0 0
M  V30 4 C -1.576 -2.0556 0.0 0
M  V30 5 C 2.3525 -1.1191 0.0 0
M  V30 6 C -3.0378 -1.1191 0.0 0
M  V30 7 C -1.6902 -3.4831 0.0 0
M  V30 8 C 3.5859 -1.7473 0.0 0
M  V30 9 C 4.8193 -0.8108 0.0 0
M  V30 10 C 6.0527 -1.4617 0.0 0
M  V30 11 C 7.2861 -0.5253 0.0 0
M  V30 END ATOM
M  V30 BEGIN BOND
M  V30 1 2 1 2
M  V30 2 1 2 3
M  V30 3 1 2 4
M  V30 4 1 3 5
M  V30 5 1 4 6
M  V30 6 1 4 7
M  V30 7 1 5 8
M  V30 8 1 8 9
M  V30 9 1 9 10
M  V30 10 1 10 11
M  V30 END BOND
M  V30 END CTAB
M  END
>  <Molecule Name>
amyl isobutyrate

>  <Molecule Name 2>
amyl isobutyrate

>  <Database>
Essential Oil Database

>  <InChI>
InChI=1S/C9H18O2/c1-4-5-6-7-11-9(10)8(2)3/h8H,4-7H2,1-3H3

>  <InChI-Key>
UYGGIIOLYXRSQY-UHFFFAOYSA-N

>  <Smiles>
CCCCCOC(C(C)C)=O

>  <Molecular Formula>
C9H18O2

$$$$
cadinene
Actelion Java MolfileCreator 2.0

  0  0  0  0  0  0              0 V3000
M  V30 BEGIN CTAB
M  V30 COUNTS 15 16 0 0 0
M  V30 BEGIN ATOM
M  V30 1 C 0.0 0.0 0.0 0
M  V30 2 C -1.4893 -0.7111 0.0 0
M  V30 3 C 1.221 -0.7111 0.0 0 CFG=1
M  V30 4 C -0.1341 1.7174 0.0 0
M  V30 5 C -1.6235 -2.1602 0.0 0
M  V30 6 C 1.0868 -2.1602 0.0 0 CFG=2
M  V30 7 C 2.442 0.1475 0.0 0
M  V30 8 C -0.4025 -2.8848 0.0 0 CFG=2
M  V30 9 C 2.3078 -2.8848 0.0 0
M  V30 10 C 3.663 -0.5635 0.0 0
M  V30 11 C -0.5367 -4.3339 0.0 0
M  V30 12 C 3.5288 -1.9992 0.0 0
M  V30 13 C 0.6843 -5.0585 0.0 0
M  V30 14 C -2.026 -5.0585 0.0 0
M  V30 15 C 4.7498 -2.7238 0.0 0
M  V30 END ATOM
M  V30 BEGIN BOND
M  V30 1 2 1 2
M  V30 2 1 1 3
M  V30 3 1 1 4
M  V30 4 1 2 5
M  V30 5 1 3 6
M  V30 6 1 3 7 CFG=3
M  V30 7 1 5 8
M  V30 8 1 6 9 CFG=1
M  V30 9 1 7 10
M  V30 10 1 8 11 CFG=3
M  V30 11 2 9 12
M  V30 12 1 11 13
M  V30 13 1 11 14
M  V30 14 1 12 15
M  V30 15 1 6 8
M  V30 16 1 10 12
M  V30 END BOND
M  V30 BEGIN COLLECTION
M  V30 MDLV30/STERAC1 ATOMS=(3 3 6 8)
M  V30 END COLLECTION
M  V30 END CTAB
M  END
>  <Molecule Name>
cadinene

>  <Molecule Name 2>
cadinene

>  <Database>
Essential Oil Database

>  <InChI>
InChI=1S/C15H24/c1-10(2)13-8-6-12(4)14-7-5-11(3)9-15(13)14/h6,9-10,13-15H,5,7-8H2,1-4H3/t13-,14-,15-/m0/s1

>  <InChI-Key>
QMAYBMKBYCGXDH-KKUMJFAQSA-N

>  <Smiles>
CC(C)[C@H]1[C@@H]2C=C(C)CC[C@H]2C(C)=CC1

>  <Molecular Formula>
C15H24

$$$$
cis-p-mentha-1(7),8-dien-2-ol
Actelion Java MolfileCreator 2.0

  0  0  0  0  0  0              0 V3000
M  V30 BEGIN CTAB
M  V30 COUNTS 11 11 0 0 0
M  V30 BEGIN ATOM
M  V30 1 O 0.0 0.0 0.0 0
M  V30 2 C 1.2264 -0.7278 0.0 0 CFG=2
M  V30 3 C 2.4529 0.1482 0.0 0
M  V30 4 C 1.0917 -2.1834 0.0 0
M  V30 5 C 2.3182 1.8734 0.0 0
M  V30 6 C 3.6794 -0.566 0.0 0
M  V30 7 C 2.3182 -2.9112 0.0 0 CFG=2
M  V30 8 C 3.5447 -2.0217 0.0 0
M  V30 9 C 2.1834 -4.3668 0.0 0
M  V30 10 C 3.4099 -5.0946 0.0 0
M  V30 11 C 0.6873 -5.0946 0.0 0
M  V30 END ATOM
M  V30 BEGIN BOND
M  V30 1 1 2 1 CFG=3
M  V30 2 1 2 3
M  V30 3 1 2 4
M  V30 4 2 3 5
M  V30 5 1 3 6
M  V30 6 1 4 7
M  V30 7 1 6 8
M  V30 8 1 7 9 CFG=3
M  V30 9 2 9 10
M  V30 10 1 9 11
M  V30 11 1 7 8
M  V30 END BOND
M  V30 BEGIN COLLECTION
M  V30 MDLV30/STERAC1 ATOMS=(2 2 7)
M  V30 END COLLECTION
M  V30 END CTAB
M  END
>  <Molecule Name>
cis-p-mentha-1(7),8-dien-2-ol

>  <Molecule Name 2>
cis-p-mentha-1(7),8-dien-2-ol

>  <Database>
Essential Oil Database

>  <InChI>
InChI=1S/C10H16O/c1-7(2)9-5-4-8(3)10(11)6-9/h9-11H,1,3-6H2,2H3/t9-,10-/m0/s1

>  <InChI-Key>
PNVTXOFNJFHXOK-UWVGGRQHSA-N

>  <Smiles>
CC([C@@H](CCC1=C)C[C@@H]1O)=C

>  <Molecular Formula>
C10H16O

$$$$
ethyl 2-furoate
Actelion Java MolfileCreator 2.0

  0  0  0  0  0  0              0 V3000
M  V30 BEGIN CTAB
M  V30 COUNTS 10 10 0 0 0
M  V30 BEGIN ATOM
M  V30 1 O 0.0 0.0 0.0 0
M  V30 2 C -1.4241 -0.68 0.0 0
M  V30 3 O -2.8483 0.1411 0.0 0
M  V30 4 C -1.5524 -2.0656 0.0 0
M  V30 5 C -2.9766 1.7834 0.0 0
M  V30 6 O -2.8868 -2.8354 0.0 0
M  V30 7 C -0.4747 -2.8354 0.0 0
M  V30 8 C -4.4007 2.6173 0.0 0
M  V30 9 C -2.5147 -4.1441 0.0 0
M  V30 10 C -1.1034 -4.1441 0.0 0
M  V30 END ATOM
M  V30 BEGIN BOND
M  V30 1 2 1 2
M  V30 2 1 2 3
M  V30 3 1 2 4
M  V30 4 1 3 5
M  V30 5 1 4 6
M  V30 6 2 4 7
M  V30 7 1 5 8
M  V30 8 1 6 9
M  V30 9 1 7 10
M  V30 10 2 9 10
M  V30 END BOND
M  V30 END CTAB
M  END
>  <Molecule Name>
ethyl 2-furoate

>  <Molecule Name 2>
ethyl 2-furoate

>  <Database>
Essential Oil Database

>  <InChI>
InChI=1S/C7H8O3/c1-2-9-7(8)6-4-3-5-10-6/h3-5H,2H2,1H3

>  <InChI-Key>
NHXSTXWKZVAVOQ-UHFFFAOYSA-N

>  <Smiles>
CCOC(c1ccc[o]1)=O

>  <Molecular Formula>
C7H8O3

$$$$
ethyl-2-methyl butyrate
Actelion Java MolfileCreator 2.0

  0  0  0  0  0  0              0 V3000
M  V30 BEGIN CTAB
M  V30 COUNTS 9 8 0 0 0
M  V30 BEGIN ATOM
M  V30 1 O 0.0 0.0 0.0 0
M  V30 2 C -0.1238 1.5849 0.0 0
M  V30 3 O 1.0029 2.4021 0.0 0
M  V30 4 C -1.4982 2.4021 0.0 0 CFG=2
M  V30 5 C 2.1297 1.7334 0.0 0
M  V30 6 C -2.8726 1.7334 0.0 0
M  V30 7 C -1.622 3.987 0.0 0
M  V30 8 C 3.2564 2.5507 0.0 0
M  V30 9 C -4.247 2.5507 0.0 0
M  V30 END ATOM
M  V30 BEGIN BOND
M  V30 1 2 1 2
M  V30 2 1 2 3
M  V30 3 1 2 4
M  V30 4 1 3 5
M  V30 5 1 4 6
M  V30 6 1 4 7 CFG=3
M  V30 7 1 5 8
M  V30 8 1 6 9
M  V30 END BOND
M  V30 BEGIN COLLECTION
M  V30 MDLV30/STERAC1 ATOMS=(1 4)
M  V30 END COLLECTION
M  V30 END CTAB
M  END
>  <Molecule Name>
ethyl-2-methyl butyrate

>  <Molecule Name 2>
ethyl-2-methyl butyrate

>  <Database>
Essential Oil Database

>  <InChI>
InChI=1S/C7H14O2/c1-4-6(3)7(8)9-5-2/h6H,4-5H2,1-3H3/t6-/m0/s1

>  <InChI-Key>
HCRBXQFHJMCTLF-LURJTMIESA-N

>  <Smiles>
CCC(C)C(OCC)=O

>  <Molecular Formula>
C7H14O2

$$$$
ethyl 2-phenylacetate
Actelion Java MolfileCreator 2.0

  0  0  0  0  0  0              0 V3000
M  V30 BEGIN CTAB
M  V30 COUNTS 12 12 0 0 0
M  V30 BEGIN ATOM
M  V30 1 O 0.0 0.0 0.0 0
M  V30 2 C -0.1257 1.61 0.0 0
M  V30 3 O 1.0188 2.4276 0.0 0
M  V30 4 C -1.522 2.4276 0.0 0
M  V30 5 C 2.1635 1.7484 0.0 0
M  V30 6 C -2.9182 1.7484 0.0 0
M  V30 7 C 3.3081 2.566 0.0 0
M  V30 8 C -3.044 0.3899 0.0 0
M  V30 9 C -4.3144 2.566 0.0 0
M  V30 10 C -4.4402 -0.2893 0.0 0
M  V30 11 C -5.7106 1.8867 0.0 0
M  V30 12 C -5.8364 0.5283 0.0 0
M  V30 END ATOM
M  V30 BEGIN BOND
M  V30 1 2 1 2
M  V30 2 1 2 3
M  V30 3 1 2 4
M  V30 4 1 3 5
M  V30 5 1 4 6
M  V30 6 1 5 7
M  V30 7 2 6 8
M  V30 8 1 6 9
M  V30 9 1 8 10
M  V30 10 2 9 11
M  V30 11 2 10 12
M  V30 12 1 11 12
M  V30 END BOND
M  V30 END CTAB
M  END
>  <Molecule Name>
ethyl 2-phenylacetate

>  <Molecule Name 2>
ethyl 2-phenylacetate

>  <Database>
Essential Oil Database

>  <InChI>
InChI=1S/C10H12O2/c1-2-12-10(11)8-9-6-4-3-5-7-9/h3-7H,2,8H2,1H3

>  <InChI-Key>
DULCUDSUACXJJC-UHFFFAOYSA-N

>  <Smiles>
CCOC(Cc1ccccc1)=O

>  <Molecular Formula>
C10H12O2

$$$$
ethyl (e)-crotonate
Actelion Java MolfileCreator 2.0

  0  0  0  0  0  0              0 V3000
M  V30 BEGIN CTAB
M  V30 COUNTS 8 7 0 0 0
M  V30 BEGIN ATOM
M  V30 1 O 0.0 0.0 0.0 0
M  V30 2 C 1.4527 0.1162 0.0 0
M  V30 3 O 2.0686 -1.1389 0.0 0
M  V30 4 C 2.0686 1.6037 0.0 0
M  V30 5 C 1.1273 -2.394 0.0 0
M  V30 6 C 3.5213 1.72 0.0 0
M  V30 7 C 1.7432 -3.6492 0.0 0
M  V30 8 C 4.1373 3.2075 0.0 0
M  V30 END ATOM
M  V30 BEGIN BOND
M  V30 1 2 1 2
M  V30 2 1 2 3
M  V30 3 1 2 4
M  V30 4 1 3 5
M  V30 5 2 4 6
M  V30 6 1 5 7
M  V30 7 1 6 8
M  V30 END BOND
M  V30 END CTAB
M  END
>  <Molecule Name>
ethyl (e)-crotonate

>  <Molecule Name 2>
ethyl (e)-crotonate

>  <Database>
Essential Oil Database

>  <InChI>
InChI=1S/C6H10O2/c1-3-5-6(7)8-4-2/h3,5H,4H2,1-2H3/b5-3+

>  <InChI-Key>
ZFDIRQKJPRINOQ-HWKANZROSA-N

>  <Smiles>
CCOC(/C=C/C)=O

>  <Molecular Formula>
C6H10O2

$$$$
ethyl isobutyrate
Actelion Java MolfileCreator 2.0

  0  0  0  0  0  0              0 V3000
M  V30 BEGIN CTAB
M  V30 COUNTS 8 7 0 0 0
M  V30 BEGIN ATOM
M  V30 1 O 0.0 0.0 0.0 0
M  V30 2 C -0.1253 1.6049 0.0 0
M  V30 3 O 1.0156 2.42 0.0 0
M  V30 4 C -1.5172 2.42 0.0 0
M  V30 5 C 2.1567 1.7554 0.0 0
M  V30 6 C -2.909 1.7554 0.0 0
M  V30 7 C -1.6426 4.025 0.0 0
M  V30 8 C 3.2977 2.5705 0.0 0
M  V30 END ATOM
M  V30 BEGIN BOND
M  V30 1 2 1 2
M  V30 2 1 2 3
M  V30 3 1 2 4
M  V30 4 1 3 5
M  V30 5 1 4 6
M  V30 6 1 4 7
M  V30 7 1 5 8
M  V30 END BOND
M  V30 END CTAB
M  END
>  <Molecule Name>
ethyl isobutyrate

>  <Molecule Name 2>
ethyl isobutyrate

>  <Database>
Essential Oil Database

>  <InChI>
InChI=1S/C6H12O2/c1-4-8-6(7)5(2)3/h5H,4H2,1-3H3

>  <InChI-Key>
WDAXFOBOLVPGLV-UHFFFAOYSA-N

>  <Smiles>
CCOC(C(C)C)=O

>  <Molecular Formula>
C6H12O2

$$$$
ethyl propionate
Actelion Java MolfileCreator 2.0

  0  0  0  0  0  0              0 V3000
M  V30 BEGIN CTAB
M  V30 COUNTS 7 6 0 0 0
M  V30 BEGIN ATOM
M  V30 1 O 0.0 0.0 0.0 0
M  V30 2 C -0.1267 1.6223 0.0 0
M  V30 3 O 1.0266 2.4588 0.0 0
M  V30 4 C -1.5336 2.4588 0.0 0
M  V30 5 C 2.18 1.7871 0.0 0
M  V30 6 C -2.9404 1.7871 0.0 0
M  V30 7 C 3.3333 2.6109 0.0 0
M  V30 END ATOM
M  V30 BEGIN BOND
M  V30 1 2 1 2
M  V30 2 1 2 3
M  V30 3 1 2 4
M  V30 4 1 3 5
M  V30 5 1 4 6
M  V30 6 1 5 7
M  V30 END BOND
M  V30 END CTAB
M  END
>  <Molecule Name>
ethyl propionate

>  <Molecule Name 2>
ethyl propionate

>  <Database>
Essential Oil Database

>  <InChI>
InChI=1S/C5H10O2/c1-3-5(6)7-4-2/h3-4H2,1-2H3

>  <InChI-Key>
FKRCODPIKNYEAC-UHFFFAOYSA-N

>  <Smiles>
CCC(OCC)=O

>  <Molecular Formula>
C5H10O2

$$$$
isoleptospermone
Actelion Java MolfileCreator 2.0

  0  0  0  0  0  0              0 V3000
M  V30 BEGIN CTAB
M  V30 COUNTS 19 19 0 0 0
M  V30 BEGIN ATOM
M  V30 1 O 0.0 0.0 0.0 0
M  V30 2 C 1.2153 -0.7078 0.0 0
M  V30 3 C 1.0818 -2.1503 0.0 0
M  V30 4 C 2.4307 0.1469 0.0 0
M  V30 5 C 2.2972 -2.8581 0.0 0
M  V30 6 C 0.3739 -3.4858 0.0 0
M  V30 7 C -0.601 -1.7229 0.0 0
M  V30 8 C 3.6461 -0.5609 0.0 0
M  V30 9 C 1.3222 1.4557 0.0 0
M  V30 10 C 3.2721 1.4557 0.0 0
M  V30 11 O 2.1636 -4.3006 0.0 0
M  V30 12 C 3.5126 -1.99 0.0 0
M  V30 13 O 4.8615 0.2938 0.0 0
M  V30 14 C 4.7279 -2.6978 0.0 0
M  V30 15 O 4.5944 -4.1403 0.0 0
M  V30 16 C 5.9433 -1.8297 0.0 0 CFG=2
M  V30 17 C 7.1587 -2.5376 0.0 0
M  V30 18 C 5.8098 -0.1202 0.0 0
M  V30 19 C 8.3741 -1.6694 0.0 0
M  V30 END ATOM
M  V30 BEGIN BOND
M  V30 1 2 1 2
M  V30 2 1 2 3
M  V30 3 1 2 4
M  V30 4 1 3 5
M  V30 5 1 3 6
M  V30 6 1 3 7
M  V30 7 1 4 8
M  V30 8 1 4 9
M  V30 9 1 4 10
M  V30 10 2 5 11
M  V30 11 1 5 12
M  V30 12 2 8 13
M  V30 13 1 12 14
M  V30 14 2 14 15
M  V30 15 1 14 16
M  V30 16 1 16 17
M  V30 17 1 16 18 CFG=1
M  V30 18 1 17 19
M  V30 19 1 8 12
M  V30 END BOND
M  V30 BEGIN COLLECTION
M  V30 MDLV30/STERAC1 ATOMS=(1 16)
M  V30 END COLLECTION
M  V30 END CTAB
M  END
>  <Molecule Name>
isoleptospermone

>  <Molecule Name 2>
isoleptospermone

>  <Database>
Essential Oil Database

>  <InChI>
InChI=1S/C15H22O4/c1-7-8(2)10(16)9-11(17)14(3,4)13(19)15(5,6)12(9)18/h8-9H,7H2,1-6H3/t8-/m0/s1

>  <InChI-Key>
ZDZMTTISWJCOAE-QMMMGPOBSA-N

>  <Smiles>
CCC(C)C(C(C(C(C)(C)C(C1(C)C)=O)=O)C1=O)=O

>  <Molecular Formula>
C15H22O4

$$$$
leptospermone
Actelion Java MolfileCreator 2.0

  0  0  0  0  0  0              0 V3000
M  V30 BEGIN CTAB
M  V30 COUNTS 19 19 0 0 0
M  V30 BEGIN ATOM
M  V30 1 O 0.0 0.0 0.0 0
M  V30 2 C 1.2307 -0.7014 0.0 0
M  V30 3 C 1.0984 -2.1571 0.0 0
M  V30 4 C 2.4615 0.1588 0.0 0
M  V30 5 C 2.3292 -2.8585 0.0 0
M  V30 6 C 0.397 -3.507 0.0 0
M  V30 7 C -0.5955 -1.7336 0.0 0
M  V30 8 C 3.6923 -0.5426 0.0 0
M  V30 9 C 1.3366 1.4822 0.0 0
M  V30 10 C 3.3217 1.4822 0.0 0
M  V30 11 O 2.1968 -4.3143 0.0 0
M  V30 12 C 3.56 -1.9851 0.0 0
M  V30 13 O 4.9231 0.3308 0.0 0
M  V30 14 C 4.7907 -2.6865 0.0 0
M  V30 15 O 4.6584 -4.1423 0.0 0
M  V30 16 C 6.0215 -1.813 0.0 0
M  V30 17 C 7.2523 -2.5145 0.0 0
M  V30 18 C 8.4831 -1.641 0.0 0
M  V30 19 C 7.12 -3.9702 0.0 0
M  V30 END ATOM
M  V30 BEGIN BOND
M  V30 1 2 1 2
M  V30 2 1 2 3
M  V30 3 1 2 4
M  V30 4 1 3 5
M  V30 5 1 3 6
M  V30 6 1 3 7
M  V30 7 1 4 8
M  V30 8 1 4 9
M  V30 9 1 4 10
M  V30 10 2 5 11
M  V30 11 1 5 12
M  V30 12 2 8 13
M  V30 13 1 12 14
M  V30 14 2 14 15
M  V30 15 1 14 16
M  V30 16 1 16 17
M  V30 17 1 17 18
M  V30 18 1 17 19
M  V30 19 1 8 12
M  V30 END BOND
M  V30 END CTAB
M  END
>  <Molecule Name>
leptospermone

>  <Molecule Name 2>
leptospermone

>  <Database>
Essential Oil Database

>  <InChI>
InChI=1S/C15H22O4/c1-8(2)7-9(16)10-11(17)14(3,4)13(19)15(5,6)12(10)18/h8,10H,7H2,1-6H3

>  <InChI-Key>
YDWYMAHAWHBPPT-UHFFFAOYSA-N

>  <Smiles>
CC(C)CC(C(C(C(C)(C)C(C1(C)C)=O)=O)C1=O)=O

>  <Molecular Formula>
C15H22O4

$$$$
methyl 2-furoate
Actelion Java MolfileCreator 2.0

  0  0  0  0  0  0              0 V3000
M  V30 BEGIN CTAB
M  V30 COUNTS 9 9 0 0 0
M  V30 BEGIN ATOM
M  V30 1 O 0.0 0.0 0.0 0
M  V30 2 C 1.2219 -0.7251 0.0 0
M  V30 3 O 2.4439 0.1342 0.0 0
M  V30 4 C 1.0876 -2.1753 0.0 0
M  V30 5 C 2.3096 1.8531 0.0 0
M  V30 6 O -0.3088 -2.9676 0.0 0
M  V30 7 C 2.2156 -2.9676 0.0 0
M  V30 8 C 0.0805 -4.3373 0.0 0
M  V30 9 C 1.5576 -4.3373 0.0 0
M  V30 END ATOM
M  V30 BEGIN BOND
M  V30 1 2 1 2
M  V30 2 1 2 3
M  V30 3 1 2 4
M  V30 4 1 3 5
M  V30 5 1 4 6
M  V30 6 2 4 7
M  V30 7 1 6 8
M  V30 8 1 7 9
M  V30 9 2 8 9
M  V30 END BOND
M  V30 END CTAB
M  END
>  <Molecule Name>
methyl 2-furoate

>  <Molecule Name 2>
methyl 2-furoate

>  <Database>
Essential Oil Database

>  <InChI>
InChI=1S/C6H6O3/c1-8-6(7)5-3-2-4-9-5/h2-4H,1H3

>  <InChI-Key>
HDJLSECJEQSPKW-UHFFFAOYSA-N

>  <Smiles>
COC(c1ccc[o]1)=O

>  <Molecular Formula>
C6H6O3

$$$$
methyl 4-hydroxybenzoate
Actelion Java MolfileCreator 2.0

  0  0  0  0  0  0              0 V3000
M  V30 BEGIN CTAB
M  V30 COUNTS 11 11 0 0 0
M  V30 BEGIN ATOM
M  V30 1 O 0.0 0.0 0.0 0
M  V30 2 C 1.2148 -0.7075 0.0 0
M  V30 3 O 2.4296 0.1601 0.0 0
M  V30 4 C 1.0813 -2.1492 0.0 0
M  V30 5 C 2.2961 1.8689 0.0 0
M  V30 6 C 2.2961 -2.8567 0.0 0
M  V30 7 C -0.4004 -2.8567 0.0 0
M  V30 8 C 2.1626 -4.2985 0.0 0
M  V30 9 C -0.5339 -4.2985 0.0 0
M  V30 10 C 0.6808 -5.006 0.0 0
M  V30 11 O 0.5473 -6.4477 0.0 0
M  V30 END ATOM
M  V30 BEGIN BOND
M  V30 1 2 1 2
M  V30 2 1 2 3
M  V30 3 1 2 4
M  V30 4 1 3 5
M  V30 5 2 4 6
M  V30 6 1 4 7
M  V30 7 1 6 8
M  V30 8 2 7 9
M  V30 9 2 8 10
M  V30 10 1 10 11
M  V30 11 1 9 10
M  V30 END BOND
M  V30 END CTAB
M  END
>  <Molecule Name>
methyl 4-hydroxybenzoate

>  <Molecule Name 2>
methyl 4-hydroxybenzoate

>  <Database>
Essential Oil Database

>  <InChI>
InChI=1S/C8H8O3/c1-11-8(10)6-2-4-7(9)5-3-6/h2-5,9H,1H3

>  <InChI-Key>
LXCFILQKKLGQFO-UHFFFAOYSA-N

>  <Smiles>
COC(c(cc1)ccc1O)=O

>  <Molecular Formula>
C8H8O3

$$$$
methyl isovalerate
Actelion Java MolfileCreator 2.0

  0  0  0  0  0  0              0 V3000
M  V30 BEGIN CTAB
M  V30 COUNTS 8 7 0 0 0
M  V30 BEGIN ATOM
M  V30 1 O 0.0 0.0 0.0 0
M  V30 2 C -0.1281 1.6407 0.0 0
M  V30 3 O -1.551 2.4867 0.0 0
M  V30 4 C 1.0382 2.4867 0.0 0
M  V30 5 C -2.9738 1.8073 0.0 0
M  V30 6 C 2.2047 1.8073 0.0 0
M  V30 7 C 3.3712 2.6534 0.0 0
M  V30 8 C 2.0765 0.423 0.0 0
M  V30 END ATOM
M  V30 BEGIN BOND
M  V30 1 2 1 2
M  V30 2 1 2 3
M  V30 3 1 2 4
M  V30 4 1 3 5
M  V30 5 1 4 6
M  V30 6 1 6 7
M  V30 7 1 6 8
M  V30 END BOND
M  V30 END CTAB
M  END
>  <Molecule Name>
methyl isovalerate

>  <Molecule Name 2>
methyl isovalerate

>  <Database>
Essential Oil Database

>  <InChI>
InChI=1S/C6H12O2/c1-5(2)4-6(7)8-3/h5H,4H2,1-3H3

>  <InChI-Key>
OQAGVSWESNCJJT-UHFFFAOYSA-N

>  <Smiles>
CC(C)CC(OC)=O

>  <Molecular Formula>
C6H12O2

$$$$
propyl tetradecanoate
Actelion Java MolfileCreator 2.0

  0  0  0  0  0  0              0 V3000
M  V30 BEGIN CTAB
M  V30 COUNTS 19 18 0 0 0
M  V30 BEGIN ATOM
M  V30 1 O 0.0 0.0 0.0 0
M  V30 2 C -0.1073 -1.3421 0.0 0
M  V30 3 O 1.0522 -1.9112 0.0 0
M  V30 4 C -1.4817 -1.9112 0.0 0
M  V30 5 C 2.2118 -1.0415 0.0 0
M  V30 6 C -2.856 -1.0415 0.0 0
M  V30 7 C 3.3714 -1.6105 0.0 0
M  V30 8 C -4.2304 -1.6105 0.0 0
M  V30 9 C 4.531 -0.7408 0.0 0
M  V30 10 C -5.6047 -0.7408 0.0 0
M  V30 11 C -6.9791 -1.3099 0.0 0
M  V30 12 C -8.3534 -0.4402 0.0 0
M  V30 13 C -9.7278 -1.0092 0.0 0
M  V30 14 C -11.1022 -0.1395 0.0 0
M  V30 15 C -12.4765 -0.7086 0.0 0
M  V30 16 C -13.8509 0.161 0.0 0
M  V30 17 C -15.2252 -0.408 0.0 0
M  V30 18 C -16.5996 0.4616 0.0 0
M  V30 19 C -17.9739 -0.1073 0.0 0
M  V30 END ATOM
M  V30 BEGIN BOND
M  V30 1 2 1 2
M  V30 2 1 2 3
M  V30 3 1 2 4
M  V30 4 1 3 5
M  V30 5 1 4 6
M  V30 6 1 5 7
M  V30 7 1 6 8
M  V30 8 1 7 9
M  V30 9 1 8 10
M  V30 10 1 10 11
M  V30 11 1 11 12
M  V30 12 1 12 13
M  V30 13 1 13 14
M  V30 14 1 14 15
M  V30 15 1 15 16
M  V30 16 1 16 17
M  V30 17 1 17 18
M  V30 18 1 18 19
M  V30 END BOND
M  V30 END CTAB
M  END
>  <Molecule Name>
propyl tetradecanoate

>  <Molecule Name 2>
propyl tetradecanoate

>  <Database>
Essential Oil Database

>  <InChI>
InChI=1S/C17H34O2/c1-3-5-6-7-8-9-10-11-12-13-14-15-17(18)19-16-4-2/h3-16H2,1-2H3

>  <InChI-Key>
DPBVJRXPSXTHOL-UHFFFAOYSA-N

>  <Smiles>
CCCCCCCCCCCCCC(OCCC)=O

>  <Molecular Formula>
C17H34O2

$$$$
p-tolyl acetate
Actelion Java MolfileCreator 2.0

  0  0  0  0  0  0              0 V3000
M  V30 BEGIN CTAB
M  V30 COUNTS 11 11 0 0 0
M  V30 BEGIN ATOM
M  V30 1 O 0.0 0.0 0.0 0
M  V30 2 C -0.1175 -1.4695 0.0 0
M  V30 3 O 1.152 -2.0925 0.0 0
M  V30 4 C -1.6223 -2.0925 0.0 0
M  V30 5 C 1.0345 -3.5621 0.0 0
M  V30 6 C 2.3041 -4.1851 0.0 0
M  V30 7 C -0.4702 -4.1851 0.0 0
M  V30 8 C 2.1866 -5.6546 0.0 0
M  V30 9 C -0.5878 -5.6546 0.0 0
M  V30 10 C 0.6818 -6.2777 0.0 0
M  V30 11 C 0.5642 -7.7472 0.0 0
M  V30 END ATOM
M  V30 BEGIN BOND
M  V30 1 2 1 2
M  V30 2 1 2 3
M  V30 3 1 2 4
M  V30 4 1 3 5
M  V30 5 2 5 6
M  V30 6 1 5 7
M  V30 7 1 6 8
M  V30 8 2 7 9
M  V30 9 2 8 10
M  V30 10 1 10 11
M  V30 11 1 9 10
M  V30 END BOND
M  V30 END CTAB
M  END
>  <Molecule Name>
p-tolyl acetate

>  <Molecule Name 2>
p-tolyl acetate

>  <Database>
Essential Oil Database

>  <InChI>
InChI=1S/C9H10O2/c1-7-3-5-9(6-4-7)11-8(2)10/h3-6H,1-2H3

>  <InChI-Key>
CDJJKTLOZJAGIZ-UHFFFAOYSA-N

>  <Smiles>
CC(Oc1ccc(C)cc1)=O

>  <Molecular Formula>
C9H10O2

$$$$
(z)-3-hexenyl isobutyrate
Actelion Java MolfileCreator 2.0

  0  0  0  0  0  0              0 V3000
M  V30 BEGIN CTAB
M  V30 COUNTS 12 11 0 0 0
M  V30 BEGIN ATOM
M  V30 1 O 0.0 0.0 0.0 0
M  V30 2 C -0.1272 1.6293 0.0 0
M  V30 3 O 1.031 2.4568 0.0 0
M  V30 4 C -1.5402 2.4568 0.0 0
M  V30 5 C 2.1894 1.7694 0.0 0
M  V30 6 C -2.9532 1.7694 0.0 0
M  V30 7 C -1.6675 4.0861 0.0 0
M  V30 8 C 3.3478 2.5968 0.0 0
M  V30 9 C 4.5062 1.9094 0.0 0
M  V30 10 C 5.6646 2.7368 0.0 0
M  V30 11 C 5.5373 4.3662 0.0 0
M  V30 12 C 6.6957 5.1936 0.0 0
M  V30 END ATOM
M  V30 BEGIN BOND
M  V30 1 2 1 2
M  V30 2 1 2 3
M  V30 3 1 2 4
M  V30 4 1 3 5
M  V30 5 1 4 6
M  V30 6 1 4 7
M  V30 7 1 5 8
M  V30 8 1 8 9
M  V30 9 2 9 10
M  V30 10 1 10 11
M  V30 11 1 11 12
M  V30 END BOND
M  V30 END CTAB
M  END
>  <Molecule Name>
(z)-3-hexenyl isobutyrate

>  <Molecule Name 2>
(z)-3-hexenyl isobutyrate

>  <Database>
Essential Oil Database

>  <InChI>
InChI=1S/C10H18O2/c1-4-5-6-7-8-12-10(11)9(2)3/h5-6,9H,4,7-8H2,1-3H3/b6-5-

>  <InChI-Key>
OSMAJVWUIUORGC-WAYWQWQTSA-N

>  <Smiles>
CC/C=C\CCOC(C(C)C)=O

>  <Molecular Formula>
C10H18O2

$$$$
isobornyl formate
Actelion Java MolfileCreator 2.0

  0  0  0  0  0  0              0 V3000
M  V30 BEGIN CTAB
M  V30 COUNTS 13 14 0 0 0
M  V30 BEGIN ATOM
M  V30 1 O 0.0 0.0 0.0 0
M  V30 2 C 1.1624 0.8175 0.0 0
M  V30 3 O 2.3248 0.1405 0.0 0
M  V30 4 C 3.4872 0.9708 0.0 0
M  V30 5 C 4.6496 0.2937 0.0 0 CFG=1
M  V30 6 C 3.3595 2.6058 0.0 0
M  V30 7 C 4.1131 1.9288 0.0 0
M  V30 8 C 5.8121 1.124 0.0 0
M  V30 9 C 4.5219 -1.0857 0.0 0
M  V30 10 C 4.5219 3.4489 0.0 0 CFG=1
M  V30 11 C 2.5419 2.5164 0.0 0
M  V30 12 C 2.5419 1.5967 0.0 0
M  V30 13 C 5.6843 2.7591 0.0 0
M  V30 END ATOM
M  V30 BEGIN BOND
M  V30 1 2 1 2
M  V30 2 1 2 3
M  V30 3 1 3 4
M  V30 4 1 4 5
M  V30 5 1 4 6
M  V30 6 1 5 7
M  V30 7 1 5 8
M  V30 8 1 5 9 CFG=3
M  V30 9 1 10 6 CFG=3
M  V30 10 1 7 11
M  V30 11 1 7 12
M  V30 12 1 8 13
M  V30 13 1 7 10
M  V30 14 1 10 13
M  V30 END BOND
M  V30 BEGIN COLLECTION
M  V30 MDLV30/STERAC1 ATOMS=(2 5 10)
M  V30 END COLLECTION
M  V30 END CTAB
M  END
>  <Molecule Name>
isobornyl formate

>  <Molecule Name 2>
isobornyl formate

>  <Database>
Essential Oil Database

>  <InChI>
InChI=1S/C11H18O2/c1-10(2)8-4-5-11(10,3)9(6-8)13-7-12/h7-9H,4-6H2,1-3H3/t8-,9?,11-/m0/s1

>  <InChI-Key>
RDWUNORUTVEHJF-QCZWPSDZSA-N

>  <Smiles>
CC(C)([C@@H](CC1)C2)[C@]1(C)C2OC=O

>  <Molecular Formula>
C11H18O2

$$$$
delta-cadinol
Actelion Java MolfileCreator 2.0

  0  0  0  0  0  0              0 V3000
M  V30 BEGIN CTAB
M  V30 COUNTS 16 17 0 0 0
M  V30 BEGIN ATOM
M  V30 1 O 0.0 0.0 0.0 0
M  V30 2 C -1.1544 -1.0967 0.0 0 CFG=2
M  V30 3 C 0.0923 -1.7316 0.0 0 CFG=1
M  V30 4 C -2.6321 -1.7316 0.0 0
M  V30 5 C -2.3089 0.2308 0.0 0
M  V30 6 C -0.023 -3.1747 0.0 0 CFG=2
M  V30 7 C 1.3391 -0.785 0.0 0
M  V30 8 C -2.7476 -3.1747 0.0 0
M  V30 9 C 1.2237 -3.8097 0.0 0
M  V30 10 C -1.5008 -3.8097 0.0 0 CFG=2
M  V30 11 C 2.5859 -1.4199 0.0 0
M  V30 12 C 2.4705 -2.863 0.0 0
M  V30 13 C -1.6162 -5.2528 0.0 0
M  V30 14 C 3.7173 -3.5326 0.0 0
M  V30 15 C -0.3694 -5.8762 0.0 0
M  V30 16 C -3.0939 -5.8762 0.0 0
M  V30 END ATOM
M  V30 BEGIN BOND
M  V30 1 1 2 1 CFG=3
M  V30 2 1 2 3
M  V30 3 1 2 4
M  V30 4 1 2 5
M  V30 5 1 3 6
M  V30 6 1 3 7 CFG=3
M  V30 7 1 4 8
M  V30 8 1 6 9 CFG=3
M  V30 9 1 6 10
M  V30 10 1 7 11
M  V30 11 2 9 12
M  V30 12 1 10 13 CFG=1
M  V30 13 1 12 14
M  V30 14 1 13 15
M  V30 15 1 13 16
M  V30 16 1 8 10
M  V30 17 1 11 12
M  V30 END BOND
M  V30 BEGIN COLLECTION
M  V30 MDLV30/STERAC1 ATOMS=(4 2 3 6 10)
M  V30 END COLLECTION
M  V30 END CTAB
M  END
>  <Molecule Name>
delta-cadinol

>  <Molecule Name 2>
delta-cadinol

>  <Database>
Essential Oil Database

>  <InChI>
InChI=1S/C15H26O/c1-10(2)12-7-8-15(4,16)14-6-5-11(3)9-13(12)14/h9-10,12-14,16H,5-8H2,1-4H3/t12-,13-,14-,15+/m1/s1

>  <InChI-Key>
LHYHMMRYTDARSZ-TUVASFSCSA-N

>  <Smiles>
CC(C)[C@@H](CC1)[C@H]2C=C(C)CC[C@H]2[C@@]1(C)O

>  <Molecular Formula>
C15H26O

$$$$
6-methyl-5-hepten-2-ol
Actelion Java MolfileCreator 2.0

  0  0  0  0  0  0              0 V3000
M  V30 BEGIN CTAB
M  V30 COUNTS 9 8 0 0 0
M  V30 BEGIN ATOM
M  V30 1 O 0.0 0.0 0.0 0
M  V30 2 C 0.6808 -1.169 0.0 0 CFG=2
M  V30 3 C -0.1413 -2.338 0.0 0
M  V30 4 C 2.0683 -1.0405 0.0 0
M  V30 5 C -1.7856 -2.2096 0.0 0
M  V30 6 C -2.6207 -3.3786 0.0 0
M  V30 7 C -4.265 -3.2502 0.0 0
M  V30 8 C -5.1001 -4.4192 0.0 0
M  V30 9 C -5.1001 -1.8242 0.0 0
M  V30 END ATOM
M  V30 BEGIN BOND
M  V30 1 1 2 1 CFG=1
M  V30 2 1 2 3
M  V30 3 1 2 4
M  V30 4 1 3 5
M  V30 5 1 5 6
M  V30 6 2 6 7
M  V30 7 1 7 8
M  V30 8 1 7 9
M  V30 END BOND
M  V30 BEGIN COLLECTION
M  V30 MDLV30/STERAC1 ATOMS=(1 2)
M  V30 END COLLECTION
M  V30 END CTAB
M  END
>  <Molecule Name>
6-methyl-5-hepten-2-ol

>  <Molecule Name 2>
6-methyl-5-hepten-2-ol

>  <Database>
Essential Oil Database

>  <InChI>
InChI=1S/C8H16O/c1-7(2)5-4-6-8(3)9/h5,8-9H,4,6H2,1-3H3/t8-/m0/s1

>  <InChI-Key>
OHEFFKYYKJVVOX-QMMMGPOBSA-N

>  <Smiles>
CC(CCC=C(C)C)O

>  <Molecular Formula>
C8H16O

$$$$
isobornyl isobutyrate
Actelion Java MolfileCreator 2.0

  0  0  0  0  0  0              0 V3000
M  V30 BEGIN CTAB
M  V30 COUNTS 16 17 0 0 0
M  V30 BEGIN ATOM
M  V30 1 O 0.0 0.0 0.0 0
M  V30 2 C -0.1274 -1.3767 0.0 0
M  V30 3 O 1.0325 -2.0524 0.0 0
M  V30 4 C -1.5424 -2.0524 0.0 0
M  V30 5 C 2.1926 -1.211 0.0 0
M  V30 6 C -2.9575 -1.211 0.0 0
M  V30 7 C -1.6699 -3.4291 0.0 0
M  V30 8 C 3.3527 -1.8866 0.0 0 CFG=1
M  V30 9 C 2.0651 0.4206 0.0 0
M  V30 10 C 2.8172 -0.2549 0.0 0
M  V30 11 C 4.5127 -1.058 0.0 0
M  V30 12 C 3.2252 -3.2634 0.0 0
M  V30 13 C 3.2252 1.2492 0.0 0 CFG=1
M  V30 14 C 1.2492 0.3314 0.0 0
M  V30 15 C 1.2492 -0.5864 0.0 0
M  V30 16 C 4.3852 0.5736 0.0 0
M  V30 END ATOM
M  V30 BEGIN BOND
M  V30 1 2 1 2
M  V30 2 1 2 3
M  V30 3 1 2 4
M  V30 4 1 3 5
M  V30 5 1 4 6
M  V30 6 1 4 7
M  V30 7 1 5 8
M  V30 8 1 5 9
M  V30 9 1 8 10
M  V30 10 1 8 11
M  V30 11 1 8 12 CFG=3
M  V30 12 1 13 9 CFG=3
M  V30 13 1 10 14
M  V30 14 1 10 15
M  V30 15 1 11 16
M  V30 16 1 10 13
M  V30 17 1 13 16
M  V30 END BOND
M  V30 BEGIN COLLECTION
M  V30 MDLV30/STERAC1 ATOMS=(2 8 13)
M  V30 END COLLECTION
M  V30 END CTAB
M  END
>  <Molecule Name>
isobornyl isobutyrate

>  <Molecule Name 2>
isobornyl isobutyrate

>  <Database>
Essential Oil Database

>  <InChI>
InChI=1S/C14H24O2/c1-9(2)12(15)16-11-8-10-6-7-14(11,5)13(10,3)4/h9-11H,6-8H2,1-5H3/t10-,11?,14-/m0/s1

>  <InChI-Key>
KRKIAJBQOUBNSE-PEMBBPQUSA-N

>  <Smiles>
CC(C)C(OC1[C@](C)(CC2)C(C)(C)[C@@H]2C1)=O

>  <Molecular Formula>
C14H24O2

$$$$
alpha-bisabolene
Actelion Java MolfileCreator 2.0

  0  0  0  0  0  0              0 V3000
M  V30 BEGIN CTAB
M  V30 COUNTS 15 15 0 0 0
M  V30 BEGIN ATOM
M  V30 1 C 0.0 0.0 0.0 0
M  V30 2 C -1.4028 0.8088 0.0 0
M  V30 3 C 1.1501 0.8088 0.0 0
M  V30 4 C -0.1263 -1.3649 0.0 0
M  V30 5 C -1.5292 2.4266 0.0 0
M  V30 6 C 1.0237 2.4266 0.0 0
M  V30 7 C -0.3791 3.2481 0.0 0 CFG=2
M  V30 8 C -0.5055 4.8658 0.0 0
M  V30 9 C 0.6445 5.6873 0.0 0
M  V30 10 C -1.9084 5.6873 0.0 0
M  V30 11 C 0.5181 7.305 0.0 0
M  V30 12 C 1.6682 8.1266 0.0 0
M  V30 13 C 2.8184 7.4441 0.0 0
M  V30 14 C 3.9685 8.2656 0.0 0
M  V30 15 C 2.692 6.0791 0.0 0
M  V30 END ATOM
M  V30 BEGIN BOND
M  V30 1 2 1 2
M  V30 2 1 1 3
M  V30 3 1 1 4
M  V30 4 1 2 5
M  V30 5 1 3 6
M  V30 6 1 5 7
M  V30 7 1 7 8 CFG=1
M  V30 8 2 8 9
M  V30 9 1 8 10
M  V30 10 1 9 11
M  V30 11 1 11 12
M  V30 12 2 12 13
M  V30 13 1 13 14
M  V30 14 1 13 15
M  V30 15 1 6 7
M  V30 END BOND
M  V30 BEGIN COLLECTION
M  V30 MDLV30/STERAC1 ATOMS=(1 7)
M  V30 END COLLECTION
M  V30 END CTAB
M  END
>  <Molecule Name>
alpha-bisabolene

>  <Molecule Name 2>
alpha-bisabolene

>  <Database>
Essential Oil Database

>  <InChI>
InChI=1S/C15H24/c1-12(2)6-5-7-14(4)15-10-8-13(3)9-11-15/h6-8,15H,5,9-11H2,1-4H3/b14-7+/t15-/m1/s1

>  <InChI-Key>
YHBUQBJHSRGZNF-KEQVLUGWSA-N

>  <Smiles>
CC(C)=CC/C=C(\C)/C1CC=C(C)CC1

>  <Molecular Formula>
C15H24

$$$$
methyl jasmonate
Actelion Java MolfileCreator 2.0

  0  0  0  0  0  0              0 V3000
M  V30 BEGIN CTAB
M  V30 COUNTS 16 16 0 0 0
M  V30 BEGIN ATOM
M  V30 1 O 0.0 0.0 0.0 0
M  V30 2 C 1.319 -0.375 0.0 0
M  V30 3 C 2.4054 0.6078 0.0 0 CFG=2
M  V30 4 C 1.6941 -1.6941 0.0 0
M  V30 5 C 3.4917 -0.1551 0.0 0 CFG=1
M  V30 6 C 2.276 2.2631 0.0 0
M  V30 7 C 3.0908 -1.5648 0.0 0
M  V30 8 C 4.8108 0.4784 0.0 0
M  V30 9 C 0.8406 3.1037 0.0 0
M  V30 10 C 5.0177 2.095 0.0 0
M  V30 11 C 0.7112 4.759 0.0 0
M  V30 12 O 3.7891 3.2072 0.0 0
M  V30 13 O 6.3368 2.7287 0.0 0
M  V30 14 C 1.8881 5.5996 0.0 0
M  V30 15 C 7.3067 1.8751 0.0 0
M  V30 16 C 1.7587 7.255 0.0 0
M  V30 END ATOM
M  V30 BEGIN BOND
M  V30 1 2 1 2
M  V30 2 1 2 3
M  V30 3 1 2 4
M  V30 4 1 3 5
M  V30 5 1 3 6 CFG=1
M  V30 6 1 4 7
M  V30 7 1 5 8 CFG=3
M  V30 8 1 6 9
M  V30 9 1 8 10
M  V30 10 2 9 11
M  V30 11 2 10 12
M  V30 12 1 10 13
M  V30 13 1 11 14
M  V30 14 1 13 15
M  V30 15 1 14 16
M  V30 16 1 5 7
M  V30 END BOND
M  V30 BEGIN COLLECTION
M  V30 MDLV30/STERAC1 ATOMS=(2 3 5)
M  V30 END COLLECTION
M  V30 END CTAB
M  END
>  <Molecule Name>
methyl jasmonate

>  <Molecule Name 2>
methyl jasmonate

>  <Database>
Essential Oil Database

>  <InChI>
InChI=1S/C13H20O3/c1-3-4-5-6-11-10(7-8-12(11)14)9-13(15)16-2/h4-5,10-11H,3,6-9H2,1-2H3/b5-4-/t10-,11-/m0/s1

>  <InChI-Key>
GEWDNTWNSAZUDX-XXJOZFEBSA-N

>  <Smiles>
CC/C=C\C[C@@H]([C@H](CC(OC)=O)CC1)C1=O

>  <Molecular Formula>
C13H20O3

$$$$
p-methoxy-cinnamyl alcohol
Actelion Java MolfileCreator 2.0

  0  0  0  0  0  0              0 V3000
M  V30 BEGIN CTAB
M  V30 COUNTS 12 12 0 0 0
M  V30 BEGIN ATOM
M  V30 1 O 0.0 0.0 0.0 0
M  V30 2 C -0.1211 1.5505 0.0 0
M  V30 3 C 1.1023 -0.6541 0.0 0
M  V30 4 C 0.9811 2.3378 0.0 0
M  V30 5 C -1.4657 2.3378 0.0 0
M  V30 6 C 0.86 3.8884 0.0 0
M  V30 7 C -1.5868 3.8884 0.0 0
M  V30 8 C -0.4845 4.6757 0.0 0
M  V30 9 C -0.6056 6.2263 0.0 0
M  V30 10 C -1.9502 7.0136 0.0 0
M  V30 11 C -2.0714 8.5642 0.0 0
M  V30 12 O -3.4159 9.3515 0.0 0
M  V30 END ATOM
M  V30 BEGIN BOND
M  V30 1 1 1 2
M  V30 2 1 1 3
M  V30 3 2 2 4
M  V30 4 1 2 5
M  V30 5 1 4 6
M  V30 6 2 5 7
M  V30 7 2 6 8
M  V30 8 1 8 9
M  V30 9 2 9 10
M  V30 10 1 10 11
M  V30 11 1 11 12
M  V30 12 1 7 8
M  V30 END BOND
M  V30 END CTAB
M  END
>  <Molecule Name>
p-methoxy-cinnamyl alcohol

>  <Molecule Name 2>
p-methoxy-cinnamyl alcohol

>  <Database>
Essential Oil Database

>  <InChI>
InChI=1S/C10H12O2/c1-12-10-6-4-9(5-7-10)3-2-8-11/h2-7,11H,8H2,1H3/b3-2+

>  <InChI-Key>
NYICIIFSBJOBKE-NSCUHMNNSA-N

>  <Smiles>
COc1ccc(/C=C/CO)cc1

>  <Molecular Formula>
C10H12O2

$$$$
cis-phytol
Actelion Java MolfileCreator 2.0

  0  0  0  0  0  0              0 V3000
M  V30 BEGIN CTAB
M  V30 COUNTS 21 20 0 0 0
M  V30 BEGIN ATOM
M  V30 1 O 0.0 0.0 0.0 0
M  V30 2 C 1.2789 -0.6335 0.0 0
M  V30 3 C 1.1615 -2.1119 0.0 0
M  V30 4 C 2.4405 -2.7338 0.0 0
M  V30 5 C 3.7194 -1.7717 0.0 0
M  V30 6 C 2.3231 -4.2122 0.0 0
M  V30 7 C 4.9983 -2.3935 0.0 0
M  V30 8 C 6.2772 -1.4314 0.0 0
M  V30 9 C 7.5561 -2.0533 0.0 0 CFG=2
M  V30 10 C 8.8351 -1.0911 0.0 0
M  V30 11 C 7.4388 -3.5317 0.0 0
M  V30 12 C 10.114 -1.713 0.0 0
M  V30 13 C 11.3929 -0.7509 0.0 0
M  V30 14 C 12.6718 -1.3727 0.0 0 CFG=2
M  V30 15 C 13.9508 -0.4106 0.0 0
M  V30 16 C 12.5545 -2.8511 0.0 0
M  V30 17 C 15.2297 -1.0325 0.0 0
M  V30 18 C 16.5086 -0.0703 0.0 0
M  V30 19 C 17.7875 -0.6922 0.0 0
M  V30 20 C 19.0664 0.2698 0.0 0
M  V30 21 C 17.6702 -2.1706 0.0 0
M  V30 END ATOM
M  V30 BEGIN BOND
M  V30 1 1 1 2
M  V30 2 1 2 3
M  V30 3 2 3 4
M  V30 4 1 4 5
M  V30 5 1 4 6
M  V30 6 1 5 7
M  V30 7 1 7 8
M  V30 8 1 8 9
M  V30 9 1 9 10
M  V30 10 1 9 11 CFG=3
M  V30 11 1 10 12
M  V30 12 1 12 13
M  V30 13 1 13 14
M  V30 14 1 14 15
M  V30 15 1 14 16 CFG=3
M  V30 16 1 15 17
M  V30 17 1 17 18
M  V30 18 1 18 19
M  V30 19 1 19 20
M  V30 20 1 19 21
M  V30 END BOND
M  V30 BEGIN COLLECTION
M  V30 MDLV30/STERAC1 ATOMS=(2 9 14)
M  V30 END COLLECTION
M  V30 END CTAB
M  END
>  <Molecule Name>
cis-phytol

>  <Molecule Name 2>
cis-phytol

>  <Database>
Essential Oil Database

>  <InChI>
InChI=1S/C20H40O/c1-17(2)9-6-10-18(3)11-7-12-19(4)13-8-14-20(5)15-16-21/h15,17-19,21H,6-14,16H2,1-5H3/b20-15-/t18-,19-/m0/s1

>  <InChI-Key>
BOTWFXYSPFMFNR-ITKMZDMZSA-N

>  <Smiles>
CC(C)CCC[C@H](C)CCC[C@H](C)CCC/C(\C)=C\CO

>  <Molecular Formula>
C20H40O

$$$$
neryl propionate
Actelion Java MolfileCreator 2.0

  0  0  0  0  0  0              0 V3000
M  V30 BEGIN CTAB
M  V30 COUNTS 15 14 0 0 0
M  V30 BEGIN ATOM
M  V30 1 O 0.0 0.0 0.0 0
M  V30 2 C -0.1301 -1.4053 0.0 0
M  V30 3 O 1.054 -2.095 0.0 0
M  V30 4 C -1.5745 -2.095 0.0 0
M  V30 5 C 2.2381 -1.2492 0.0 0
M  V30 6 C -3.0189 -1.2492 0.0 0
M  V30 7 C 3.4223 -1.9388 0.0 0
M  V30 8 C 4.6064 -1.093 0.0 0
M  V30 9 C 4.4763 0.5725 0.0 0
M  V30 10 C 5.7905 -1.7827 0.0 0
M  V30 11 C 5.6604 1.4183 0.0 0
M  V30 12 C 5.5303 3.0839 0.0 0
M  V30 13 C 6.7144 3.9297 0.0 0
M  V30 14 C 6.5843 5.5954 0.0 0
M  V30 15 C 7.8986 3.2401 0.0 0
M  V30 END ATOM
M  V30 BEGIN BOND
M  V30 1 2 1 2
M  V30 2 1 2 3
M  V30 3 1 2 4
M  V30 4 1 3 5
M  V30 5 1 4 6
M  V30 6 1 5 7
M  V30 7 2 7 8
M  V30 8 1 8 9
M  V30 9 1 8 10
M  V30 10 1 9 11
M  V30 11 1 11 12
M  V30 12 2 12 13
M  V30 13 1 13 14
M  V30 14 1 13 15
M  V30 END BOND
M  V30 END CTAB
M  END
>  <Molecule Name>
neryl propionate

>  <Molecule Name 2>
neryl propionate

>  <Database>
Essential Oil Database

>  <InChI>
InChI=1S/C13H22O2/c1-5-13(14)15-10-9-12(4)8-6-7-11(2)3/h7,9H,5-6,8,10H2,1-4H3/b12-9-

>  <InChI-Key>
BYCHQEILESTMQU-XFXZXTDPSA-N

>  <Smiles>
CCC(OC/C=C(/C)\CCC=C(C)C)=O

>  <Molecular Formula>
C13H22O2

$$$$
menthol
Actelion Java MolfileCreator 2.0

  0  0  0  0  0  0              0 V3000
M  V30 BEGIN CTAB
M  V30 COUNTS 11 11 0 0 0
M  V30 BEGIN ATOM
M  V30 1 O 0.0 0.0 0.0 0
M  V30 2 C 1.218 -0.7094 0.0 0 CFG=2
M  V30 3 C 2.4361 0.1472 0.0 0 CFG=1
M  V30 4 C 1.0842 -2.155 0.0 0
M  V30 5 C 2.3023 1.8605 0.0 0
M  V30 6 C 3.6542 -0.5621 0.0 0
M  V30 7 C 2.3023 -2.8645 0.0 0 CFG=2
M  V30 8 C 0.8165 2.7306 0.0 0
M  V30 9 C 3.5204 2.7306 0.0 0
M  V30 10 C 3.5204 -2.0078 0.0 0
M  V30 11 C 2.1684 -4.3101 0.0 0
M  V30 END ATOM
M  V30 BEGIN BOND
M  V30 1 1 2 1 CFG=3
M  V30 2 1 2 3
M  V30 3 1 2 4
M  V30 4 1 3 5 CFG=1
M  V30 5 1 3 6
M  V30 6 1 4 7
M  V30 7 1 5 8
M  V30 8 1 5 9
M  V30 9 1 6 10
M  V30 10 1 7 11 CFG=3
M  V30 11 1 7 10
M  V30 END BOND
M  V30 BEGIN COLLECTION
M  V30 MDLV30/STERAC1 ATOMS=(3 2 3 7)
M  V30 END COLLECTION
M  V30 END CTAB
M  END
>  <Molecule Name>
menthol

>  <Molecule Name 2>
menthol

>  <Database>
Essential Oil Database

>  <InChI>
InChI=1S/C10H20O/c1-7(2)9-5-4-8(3)6-10(9)11/h7-11H,4-6H2,1-3H3/t8-,9+,10-/m0/s1

>  <InChI-Key>
NOOLISFMXDJSKH-AEJSXWLSSA-N

>  <Smiles>
CC(C)[C@@H](CC[C@H](C)C1)[C@H]1O

>  <Molecular Formula>
C10H20O

$$$$
neomenthol
Actelion Java MolfileCreator 2.0

  0  0  0  0  0  0              0 V3000
M  V30 BEGIN CTAB
M  V30 COUNTS 11 11 0 0 0
M  V30 BEGIN ATOM
M  V30 1 O 0.0 0.0 0.0 0
M  V30 2 C 1.218 -0.7094 0.0 0
M  V30 3 C 2.4361 0.1472 0.0 0 CFG=2
M  V30 4 C 1.0842 -2.155 0.0 0
M  V30 5 C 2.3023 1.8605 0.0 0
M  V30 6 C 3.6542 -0.5621 0.0 0
M  V30 7 C 2.3023 -2.8645 0.0 0 CFG=2
M  V30 8 C 0.8165 2.7306 0.0 0
M  V30 9 C 3.5204 2.7306 0.0 0
M  V30 10 C 3.5204 -2.0078 0.0 0
M  V30 11 C 2.1684 -4.3101 0.0 0
M  V30 END ATOM
M  V30 BEGIN BOND
M  V30 1 1 1 2
M  V30 2 1 2 3
M  V30 3 1 2 4
M  V30 4 1 3 5 CFG=3
M  V30 5 1 3 6
M  V30 6 1 4 7
M  V30 7 1 5 8
M  V30 8 1 5 9
M  V30 9 1 6 10
M  V30 10 1 7 11 CFG=3
M  V30 11 1 7 10
M  V30 END BOND
M  V30 BEGIN COLLECTION
M  V30 MDLV30/STERAC1 ATOMS=(2 3 7)
M  V30 END COLLECTION
M  V30 END CTAB
M  END
>  <Molecule Name>
neomenthol

>  <Molecule Name 2>
neomenthol

>  <Database>
Essential Oil Database

>  <InChI>
InChI=1S/C10H20O/c1-7(2)9-5-4-8(3)6-10(9)11/h7-11H,4-6H2,1-3H3/t8-,9-,10?/m0/s1

>  <InChI-Key>
NOOLISFMXDJSKH-XMCUXHSSSA-N

>  <Smiles>
CC(C)[C@H](CC[C@H](C)C1)C1O

>  <Molecular Formula>
C10H20O

$$$$
menthyl acetate
Actelion Java MolfileCreator 2.0

  0  0  0  0  0  0              0 V3000
M  V30 BEGIN CTAB
M  V30 COUNTS 14 14 0 0 0
M  V30 BEGIN ATOM
M  V30 1 O 0.0 0.0 0.0 0
M  V30 2 C 1.225 -0.7134 0.0 0
M  V30 3 O 2.45 0.148 0.0 0
M  V30 4 C 1.0904 -2.1673 0.0 0
M  V30 5 C 3.6751 -0.5654 0.0 0 CFG=2
M  V30 6 C 4.9001 0.3096 0.0 0 CFG=1
M  V30 7 C 3.5405 -2.0193 0.0 0
M  V30 8 C 4.7655 2.0327 0.0 0
M  V30 9 C 6.1252 -0.4038 0.0 0
M  V30 10 C 4.7655 -2.7327 0.0 0 CFG=2
M  V30 11 C 3.2712 2.9212 0.0 0
M  V30 12 C 5.9906 2.9212 0.0 0
M  V30 13 C 5.9906 -1.8577 0.0 0
M  V30 14 C 4.6309 -4.1866 0.0 0
M  V30 END ATOM
M  V30 BEGIN BOND
M  V30 1 2 1 2
M  V30 2 1 2 3
M  V30 3 1 2 4
M  V30 4 1 5 3 CFG=3
M  V30 5 1 5 6
M  V30 6 1 5 7
M  V30 7 1 6 8 CFG=1
M  V30 8 1 6 9
M  V30 9 1 7 10
M  V30 10 1 8 11
M  V30 11 1 8 12
M  V30 12 1 9 13
M  V30 13 1 10 14 CFG=3
M  V30 14 1 10 13
M  V30 END BOND
M  V30 BEGIN COLLECTION
M  V30 MDLV30/STERAC1 ATOMS=(3 5 6 10)
M  V30 END COLLECTION
M  V30 END CTAB
M  END
>  <Molecule Name>
menthyl acetate

>  <Molecule Name 2>
menthyl acetate

>  <Database>
Essential Oil Database

>  <InChI>
InChI=1S/C12H22O2/c1-8(2)11-6-5-9(3)7-12(11)14-10(4)13/h8-9,11-12H,5-7H2,1-4H3/t9-,11+,12-/m0/s1

>  <InChI-Key>
XHXUANMFYXWVNG-WCQGTBRESA-N

>  <Smiles>
CC(C)[C@@H](CC[C@H](C)C1)[C@H]1OC(C)=O

>  <Molecular Formula>
C12H22O2

$$$$
pulegone
Actelion Java MolfileCreator 2.0

  0  0  0  0  0  0              0 V3000
M  V30 BEGIN CTAB
M  V30 COUNTS 11 11 0 0 0
M  V30 BEGIN ATOM
M  V30 1 O 0.0 0.0 0.0 0
M  V30 2 C 1.1822 0.8444 0.0 0
M  V30 3 C 2.3644 0.1558 0.0 0
M  V30 4 C 1.0522 2.5073 0.0 0
M  V30 5 C 2.2344 -1.2471 0.0 0
M  V30 6 C 3.5466 1.0003 0.0 0
M  V30 7 C 2.2344 3.3647 0.0 0 CFG=2
M  V30 8 C 3.4166 -1.9486 0.0 0
M  V30 9 C 0.7924 -1.9486 0.0 0
M  V30 10 C 3.4166 2.6632 0.0 0
M  V30 11 C 2.1045 5.0276 0.0 0
M  V30 END ATOM
M  V30 BEGIN BOND
M  V30 1 2 1 2
M  V30 2 1 2 3
M  V30 3 1 2 4
M  V30 4 2 3 5
M  V30 5 1 3 6
M  V30 6 1 4 7
M  V30 7 1 5 8
M  V30 8 1 5 9
M  V30 9 1 6 10
M  V30 10 1 7 11 CFG=1
M  V30 11 1 7 10
M  V30 END BOND
M  V30 BEGIN COLLECTION
M  V30 MDLV30/STERAC1 ATOMS=(1 7)
M  V30 END COLLECTION
M  V30 END CTAB
M  END
>  <Molecule Name>
pulegone

>  <Molecule Name 2>
pulegone

>  <Database>
Essential Oil Database

>  <InChI>
InChI=1S/C10H16O/c1-7(2)9-5-4-8(3)6-10(9)11/h8H,4-6H2,1-3H3/t8-/m0/s1

>  <InChI-Key>
NZGWDASTMWDZIW-QMMMGPOBSA-N

>  <Smiles>
CC(CCC1=C(C)C)CC1=O

>  <Molecular Formula>
C10H16O

$$$$
menthofuran
Actelion Java MolfileCreator 2.0

  0  0  0  0  0  0              0 V3000
M  V30 BEGIN CTAB
M  V30 COUNTS 11 12 0 0 0
M  V30 BEGIN ATOM
M  V30 1 O 0.0 0.0 0.0 0
M  V30 2 C 1.3836 -0.3343 0.0 0
M  V30 3 C -1.0838 -1.176 0.0 0
M  V30 4 C 1.2683 -1.7871 0.0 0
M  V30 5 C 2.6404 0.611 0.0 0
M  V30 6 C -0.2306 -2.3521 0.0 0
M  V30 7 C 2.5251 -2.3982 0.0 0
M  V30 8 C 3.8971 0.0 0.0 0 CFG=2
M  V30 9 C -0.7955 -3.7357 0.0 0
M  V30 10 C 3.7818 -1.4528 0.0 0
M  V30 11 C 5.1539 0.9454 0.0 0
M  V30 END ATOM
M  V30 BEGIN BOND
M  V30 1 1 1 2
M  V30 2 1 1 3
M  V30 3 2 2 4
M  V30 4 1 2 5
M  V30 5 2 3 6
M  V30 6 1 4 7
M  V30 7 1 5 8
M  V30 8 1 6 9
M  V30 9 1 7 10
M  V30 10 1 8 11 CFG=1
M  V30 11 1 4 6
M  V30 12 1 8 10
M  V30 END BOND
M  V30 BEGIN COLLECTION
M  V30 MDLV30/STERAC1 ATOMS=(1 8)
M  V30 END COLLECTION
M  V30 END CTAB
M  END
>  <Molecule Name>
menthofuran

>  <Molecule Name 2>
menthofuran

>  <Database>
Essential Oil Database

>  <InChI>
InChI=1S/C10H14O/c1-7-3-4-9-8(2)6-11-10(9)5-7/h6-7H,3-5H2,1-2H3/t7-/m0/s1

>  <InChI-Key>
YGWKXXYGDYYFJU-ZETCQYMHSA-N

>  <Smiles>
CC(CC1)Cc2c1c(C)c[o]2

>  <Molecular Formula>
C10H14O

$$$$
isopinocamphone
Actelion Java MolfileCreator 2.0

  0  0  0  0  0  0              0 V3000
M  V30 BEGIN CTAB
M  V30 COUNTS 11 12 0 0 0
M  V30 BEGIN ATOM
M  V30 1 O 0.0 0.0 0.0 0
M  V30 2 C -1.6059 0.1129 0.0 0
M  V30 3 C -2.4214 -1.0413 0.0 0 CFG=2
M  V30 4 C -2.4339 1.493 0.0 0
M  V30 5 C -4.0273 -0.9284 0.0 0 CFG=1
M  V30 6 C -1.7313 -2.1705 0.0 0
M  V30 7 C -4.0399 1.6059 0.0 0 CFG=2
M  V30 8 C -4.8554 0.4516 0.0 0
M  V30 9 C -4.3535 0.6273 0.0 0
M  V30 10 C -6.2857 1.2546 0.0 0
M  V30 11 C -6.2606 -0.1881 0.0 0
M  V30 END ATOM
M  V30 BEGIN BOND
M  V30 1 2 1 2
M  V30 2 1 2 3
M  V30 3 1 2 4
M  V30 4 1 3 5
M  V30 5 1 3 6 CFG=1
M  V30 6 1 7 4 CFG=1
M  V30 7 1 5 8
M  V30 8 1 5 9 CFG=3
M  V30 9 1 8 10
M  V30 10 1 8 11
M  V30 11 1 7 8
M  V30 12 1 7 9
M  V30 END BOND
M  V30 BEGIN COLLECTION
M  V30 MDLV30/STERAC1 ATOMS=(3 3 5 7)
M  V30 END COLLECTION
M  V30 END CTAB
M  END
>  <Molecule Name>
isopinocamphone

>  <Molecule Name 2>
isopinocamphone

>  <Database>
Essential Oil Database

>  <InChI>
InChI=1S/C10H16O/c1-6-8-4-7(5-9(6)11)10(8,2)3/h6-8H,4-5H2,1-3H3/t6-,7+,8-/m0/s1

>  <InChI-Key>
MQPHVIPKLRXGDJ-RNJXMRFFSA-N

>  <Smiles>
C[C@@H]([C@H](C1)C(C)(C)[C@H]1C1)C1=O

>  <Molecular Formula>
C10H16O

$$$$
9-hexadecenoic acid
Actelion Java MolfileCreator 2.0

  0  0  0  0  0  0              0 V3000
M  V30 BEGIN CTAB
M  V30 COUNTS 18 17 0 0 0
M  V30 BEGIN ATOM
M  V30 1 O 0.0 0.0 0.0 0
M  V30 2 C -0.1166 -1.4583 0.0 0
M  V30 3 O -1.6099 -2.1116 0.0 0
M  V30 4 C 1.1433 -2.1116 0.0 0
M  V30 5 C 2.4033 -1.1549 0.0 0
M  V30 6 C 3.6632 -1.8083 0.0 0
M  V30 7 C 4.9232 -0.8516 0.0 0
M  V30 8 C 6.1832 -1.4933 0.0 0
M  V30 9 C 7.4432 -0.5366 0.0 0
M  V30 10 C 8.7032 -1.1783 0.0 0
M  V30 11 C 9.9631 -0.2216 0.0 0
M  V30 12 C 11.2231 -0.8749 0.0 0
M  V30 13 C 12.4831 0.0816 0.0 0
M  V30 14 C 13.7431 -0.5599 0.0 0
M  V30 15 C 15.0031 0.3966 0.0 0
M  V30 16 C 16.2631 -0.2449 0.0 0
M  V30 17 C 17.523 0.7116 0.0 0
M  V30 18 C 18.783 0.0583 0.0 0
M  V30 END ATOM
M  V30 BEGIN BOND
M  V30 1 2 1 2
M  V30 2 1 2 3
M  V30 3 1 2 4
M  V30 4 1 4 5
M  V30 5 1 5 6
M  V30 6 1 6 7
M  V30 7 1 7 8
M  V30 8 1 8 9
M  V30 9 1 9 10
M  V30 10 1 10 11
M  V30 11 2 11 12
M  V30 12 1 12 13
M  V30 13 1 13 14
M  V30 14 1 14 15
M  V30 15 1 15 16
M  V30 16 1 16 17
M  V30 17 1 17 18
M  V30 END BOND
M  V30 END CTAB
M  END
>  <Molecule Name>
9-hexadecenoic acid

>  <Molecule Name 2>
9-hexadecenoic acid

>  <Database>
Essential Oil Database

>  <InChI>
InChI=1S/C16H30O2/c1-2-3-4-5-6-7-8-9-10-11-12-13-14-15-16(17)18/h7-8H,2-6,9-15H2,1H3,(H,17,18)/b8-7+

>  <InChI-Key>
SECPZKHBENQXJG-BQYQJAHWSA-N

>  <Smiles>
CCCCCC/C=C/CCCCCCCC(O)=O

>  <Molecular Formula>
C16H30O2

$$$$
abietatriene
Actelion Java MolfileCreator 2.0

  0  0  0  0  0  0              0 V3000
M  V30 BEGIN CTAB
M  V30 COUNTS 20 22 0 0 0
M  V30 BEGIN ATOM
M  V30 1 C 0.0 0.0 0.0 0
M  V30 2 C 0.6785 -1.1651 0.0 0
M  V30 3 C 0.6785 1.4212 0.0 0
M  V30 4 C -1.6388 0.128 0.0 0 CFG=2
M  V30 5 C 2.0613 -1.037 0.0 0
M  V30 6 C -0.1408 -2.3302 0.0 0
M  V30 7 C 2.0613 1.5492 0.0 0
M  V30 8 C -2.4711 -1.037 0.0 0 CFG=1
M  V30 9 C -2.4711 1.5492 0.0 0
M  V30 10 C -0.9474 1.5492 0.0 0
M  V30 11 C 2.7527 0.3841 0.0 0
M  V30 12 C -1.7797 -2.2022 0.0 0
M  V30 13 C -4.1099 -0.909 0.0 0
M  V30 14 C -4.1099 1.6772 0.0 0
M  V30 15 C 4.1355 0.5121 0.0 0
M  V30 16 C -4.9422 0.5121 0.0 0
M  V30 17 C -3.9563 -2.2662 0.0 0
M  V30 18 C -5.6464 -1.3315 0.0 0
M  V30 19 C 4.8141 -0.6529 0.0 0
M  V30 20 C 4.8141 1.9333 0.0 0
M  V30 END ATOM
M  V30 BEGIN BOND
M  V30 1 2 1 2
M  V30 2 1 1 3
M  V30 3 1 1 4
M  V30 4 1 2 5
M  V30 5 1 2 6
M  V30 6 2 3 7
M  V30 7 1 4 8
M  V30 8 1 4 9
M  V30 9 1 4 10 CFG=1
M  V30 10 2 5 11
M  V30 11 1 6 12
M  V30 12 1 8 13
M  V30 13 1 9 14
M  V30 14 1 11 15
M  V30 15 1 13 16
M  V30 16 1 13 17
M  V30 17 1 13 18
M  V30 18 1 15 19
M  V30 19 1 15 20
M  V30 20 1 7 11
M  V30 21 1 8 12 CFG=1
M  V30 22 1 14 16
M  V30 END BOND
M  V30 BEGIN COLLECTION
M  V30 MDLV30/STERAC1 ATOMS=(2 4 8)
M  V30 END COLLECTION
M  V30 END CTAB
M  END
>  <Molecule Name>
abietatriene

>  <Molecule Name 2>
abietatriene

>  <Database>
Essential Oil Database

>  <InChI>
InChI=1S/C20H30/c1-14(2)15-7-9-17-16(13-15)8-10-18-19(3,4)11-6-12-20(17,18)5/h7,9,13-14,18H,6,8,10-12H2,1-5H3/t18-,20+/m0/s1

>  <InChI-Key>
QUUCYKKMFLJLFS-AZUAARDMSA-N

>  <Smiles>
CC(C)c1cc(CC[C@@H]2[C@]3(C)CCCC2(C)C)c3cc1

>  <Molecular Formula>
C20H30

$$$$
carveol
Actelion Java MolfileCreator 2.0

  0  0  0  0  0  0              0 V3000
M  V30 BEGIN CTAB
M  V30 COUNTS 11 11 0 0 0
M  V30 BEGIN ATOM
M  V30 1 O 0.0 0.0 0.0 0
M  V30 2 C 1.1733 0.8252 0.0 0
M  V30 3 C 2.3467 0.1418 0.0 0
M  V30 4 C 1.0444 2.4757 0.0 0
M  V30 5 C 3.5201 0.9799 0.0 0
M  V30 6 C 2.2178 -1.2507 0.0 0
M  V30 7 C 2.2178 3.3138 0.0 0
M  V30 8 C 3.3912 2.6304 0.0 0
M  V30 9 C 2.0888 4.9643 0.0 0
M  V30 10 C 3.2622 5.8024 0.0 0
M  V30 11 C 0.6576 5.8024 0.0 0
M  V30 END ATOM
M  V30 BEGIN BOND
M  V30 1 1 1 2
M  V30 2 1 2 3
M  V30 3 1 2 4
M  V30 4 2 3 5
M  V30 5 1 3 6
M  V30 6 1 4 7
M  V30 7 1 5 8
M  V30 8 1 7 9
M  V30 9 2 9 10
M  V30 10 1 9 11
M  V30 11 1 7 8
M  V30 END BOND
M  V30 END CTAB
M  END
>  <Molecule Name>
carveol

>  <Molecule Name 2>
carveol

>  <Database>
Essential Oil Database

>  <InChI>
InChI=1S/C10H16O/c1-7(2)9-5-4-8(3)10(11)6-9/h4,9-11H,1,5-6H2,2-3H3

>  <InChI-Key>
BAVONGHXFVOKBV-UHFFFAOYSA-N

>  <Smiles>
CC(C(C1)CC=C(C)C1O)=C

>  <Molecular Formula>
C10H16O

$$$$
cedrol
Actelion Java MolfileCreator 2.0

  0  0  0  0  0  0              0 V3000
M  V30 BEGIN CTAB
M  V30 COUNTS 16 18 0 0 0
M  V30 BEGIN ATOM
M  V30 1 O 0.0 0.0 0.0 0
M  V30 2 C -1.0569 -0.9326 0.0 0 CFG=2
M  V30 3 C -2.3377 0.1243 0.0 0 CFG=2
M  V30 4 C -1.4548 -2.288 0.0 0
M  V30 5 C 0.2611 -1.0196 0.0 0
M  V30 6 C -3.805 0.9326 0.0 0
M  V30 7 C -3.2454 -0.746 0.0 0
M  V30 8 C -3.0465 -2.6237 0.0 0
M  V30 9 C -4.9739 -0.0373 0.0 0 CFG=2
M  V30 10 C -5.0485 1.9149 0.0 0
M  V30 11 C -3.1086 2.2755 0.0 0
M  V30 12 C -4.2651 -1.4673 0.0 0 CFG=1
M  V30 13 C -6.5531 -0.0621 0.0 0
M  V30 14 C -5.5459 -2.2382 0.0 0 CFG=2
M  V30 15 C -7.0132 -1.3678 0.0 0
M  V30 16 C -5.5707 -3.5687 0.0 0
M  V30 END ATOM
M  V30 BEGIN BOND
M  V30 1 1 2 1 CFG=1
M  V30 2 1 2 3
M  V30 3 1 2 4
M  V30 4 1 2 5
M  V30 5 1 3 6
M  V30 6 1 3 7 CFG=3
M  V30 7 1 4 8
M  V30 8 1 6 9
M  V30 9 1 6 10
M  V30 10 1 6 11
M  V30 11 1 12 7 CFG=3
M  V30 12 1 9 13 CFG=3
M  V30 13 1 12 14
M  V30 14 1 13 15
M  V30 15 1 14 16 CFG=1
M  V30 16 1 8 12
M  V30 17 1 9 12
M  V30 18 1 14 15
M  V30 END BOND
M  V30 BEGIN COLLECTION
M  V30 MDLV30/STERAC1 ATOMS=(5 2 3 9 12 14)
M  V30 END COLLECTION
M  V30 END CTAB
M  END
>  <Molecule Name>
cedrol

>  <Molecule Name 2>
cedrol

>  <Database>
Essential Oil Database

>  <InChI>
InChI=1S/C15H26O/c1-10-5-6-11-13(2,3)12-9-15(10,11)8-7-14(12,4)16/h10-12,16H,5-9H2,1-4H3/t10-,11+,12-,14-,15+/m0/s1

>  <InChI-Key>
SVURIXNDRWRAFU-CUZKYEQNSA-N

>  <Smiles>
C[C@@H](CC1)[C@](C2)(CC3)[C@H]1C(C)(C)[C@H]2[C@@]3(C)O

>  <Molecular Formula>
C15H26O

$$$$
amyl valerate
Actelion Java MolfileCreator 2.0

  0  0  0  0  0  0              0 V3000
M  V30 BEGIN CTAB
M  V30 COUNTS 12 11 0 0 0
M  V30 BEGIN ATOM
M  V30 1 O 0.0 0.0 0.0 0
M  V30 2 C -0.1114 -1.3929 0.0 0
M  V30 3 O 1.0921 -2.017 0.0 0
M  V30 4 C -1.5378 -2.017 0.0 0
M  V30 5 C 2.2956 -1.1032 0.0 0
M  V30 6 C -2.9642 -1.1032 0.0 0
M  V30 7 C 3.4991 -1.7273 0.0 0
M  V30 8 C -4.3907 -1.7273 0.0 0
M  V30 9 C 4.7027 -0.8135 0.0 0
M  V30 10 C -5.8171 -0.8135 0.0 0
M  V30 11 C 5.9062 -1.4375 0.0 0
M  V30 12 C 7.1098 -0.5237 0.0 0
M  V30 END ATOM
M  V30 BEGIN BOND
M  V30 1 2 1 2
M  V30 2 1 2 3
M  V30 3 1 2 4
M  V30 4 1 3 5
M  V30 5 1 4 6
M  V30 6 1 5 7
M  V30 7 1 6 8
M  V30 8 1 7 9
M  V30 9 1 8 10
M  V30 10 1 9 11
M  V30 11 1 11 12
M  V30 END BOND
M  V30 END CTAB
M  END
>  <Molecule Name>
amyl valerate

>  <Molecule Name 2>
amyl valerate

>  <Database>
Essential Oil Database

>  <InChI>
InChI=1S/C10H20O2/c1-3-5-7-9-12-10(11)8-6-4-2/h3-9H2,1-2H3

>  <InChI-Key>
FGPPDYNPZTUNIU-UHFFFAOYSA-N

>  <Smiles>
CCCCCOC(CCCC)=O

>  <Molecular Formula>
C10H20O2

$$$$
4-octen-3-one
Actelion Java MolfileCreator 2.0

  0  0  0  0  0  0              0 V3000
M  V30 BEGIN CTAB
M  V30 COUNTS 9 8 0 0 0
M  V30 BEGIN ATOM
M  V30 1 O 0.0 0.0 0.0 0
M  V30 2 C 0.6849 -1.1761 0.0 0
M  V30 3 C -0.1421 -2.3522 0.0 0
M  V30 4 C 2.0808 -1.0468 0.0 0
M  V30 5 C -1.7965 -2.223 0.0 0
M  V30 6 C 2.7658 0.3877 0.0 0
M  V30 7 C -2.6366 -3.3991 0.0 0
M  V30 8 C -4.2909 -3.2699 0.0 0
M  V30 9 C -5.131 -4.446 0.0 0
M  V30 END ATOM
M  V30 BEGIN BOND
M  V30 1 2 1 2
M  V30 2 1 2 3
M  V30 3 1 2 4
M  V30 4 2 3 5
M  V30 5 1 4 6
M  V30 6 1 5 7
M  V30 7 1 7 8
M  V30 8 1 8 9
M  V30 END BOND
M  V30 END CTAB
M  END
>  <Molecule Name>
4-octen-3-one

>  <Molecule Name 2>
4-octen-3-one

>  <Database>
Essential Oil Database

>  <InChI>
InChI=1S/C8H14O/c1-3-5-6-7-8(9)4-2/h6-7H,3-5H2,1-2H3/b7-6+

>  <InChI-Key>
JPTOCTSNXXKSSN-VOTSOKGWSA-N

>  <Smiles>
CCC/C=C/C(CC)=O

>  <Molecular Formula>
C8H14O

$$$$
methyl hydrocinnamate
Actelion Java MolfileCreator 2.0

  0  0  0  0  0  0              0 V3000
M  V30 BEGIN CTAB
M  V30 COUNTS 12 12 0 0 0
M  V30 BEGIN ATOM
M  V30 1 O 0.0 0.0 0.0 0
M  V30 2 C -0.1285 1.6456 0.0 0
M  V30 3 O -1.5556 2.4813 0.0 0
M  V30 4 C 1.0413 2.4813 0.0 0
M  V30 5 C -2.9827 1.7999 0.0 0
M  V30 6 C 2.2113 1.7999 0.0 0
M  V30 7 C 3.3812 2.6356 0.0 0
M  V30 8 C 3.2527 4.2812 0.0 0
M  V30 9 C 4.5512 1.9542 0.0 0
M  V30 10 C 4.4226 5.1169 0.0 0
M  V30 11 C 5.7212 2.7898 0.0 0
M  V30 12 C 5.5926 4.4355 0.0 0
M  V30 END ATOM
M  V30 BEGIN BOND
M  V30 1 2 1 2
M  V30 2 1 2 3
M  V30 3 1 2 4
M  V30 4 1 3 5
M  V30 5 1 4 6
M  V30 6 1 6 7
M  V30 7 2 7 8
M  V30 8 1 7 9
M  V30 9 1 8 10
M  V30 10 2 9 11
M  V30 11 2 10 12
M  V30 12 1 11 12
M  V30 END BOND
M  V30 END CTAB
M  END
>  <Molecule Name>
methyl hydrocinnamate

>  <Molecule Name 2>
methyl hydrocinnamate

>  <Database>
Essential Oil Database

>  <InChI>
InChI=1S/C10H12O2/c1-12-10(11)8-7-9-5-3-2-4-6-9/h2-6H,7-8H2,1H3

>  <InChI-Key>
RPUSRLKKXPQSGP-UHFFFAOYSA-N

>  <Smiles>
COC(CCc1ccccc1)=O

>  <Molecular Formula>
C10H12O2

$$$$
cis-dihydrocarvone
Actelion Java MolfileCreator 2.0

  0  0  0  0  0  0              0 V3000
M  V30 BEGIN CTAB
M  V30 COUNTS 11 11 0 0 0
M  V30 BEGIN ATOM
M  V30 1 O 0.0 0.0 0.0 0
M  V30 2 C 1.2281 -0.7152 0.0 0
M  V30 3 C 2.4562 0.1619 0.0 0 CFG=1
M  V30 4 C 1.0931 -2.1727 0.0 0
M  V30 5 C 3.6843 -0.5533 0.0 0
M  V30 6 C 2.3212 1.8893 0.0 0
M  V30 7 C 2.3212 -2.888 0.0 0 CFG=2
M  V30 8 C 3.5493 -2.0108 0.0 0
M  V30 9 C 2.1862 -4.3455 0.0 0
M  V30 10 C 0.6882 -5.0743 0.0 0
M  V30 11 C 3.4143 -5.0743 0.0 0
M  V30 END ATOM
M  V30 BEGIN BOND
M  V30 1 2 1 2
M  V30 2 1 2 3
M  V30 3 1 2 4
M  V30 4 1 3 5
M  V30 5 1 3 6 CFG=3
M  V30 6 1 4 7
M  V30 7 1 5 8
M  V30 8 1 7 9 CFG=3
M  V30 9 2 9 10
M  V30 10 1 9 11
M  V30 11 1 7 8
M  V30 END BOND
M  V30 BEGIN COLLECTION
M  V30 MDLV30/STERAC1 ATOMS=(2 3 7)
M  V30 END COLLECTION
M  V30 END CTAB
M  END
>  <Molecule Name>
cis-dihydrocarvone

>  <Molecule Name 2>
cis-dihydrocarvone

>  <Database>
Essential Oil Database

>  <InChI>
InChI=1S/C10H16O/c1-7(2)9-5-4-8(3)10(11)6-9/h8-9H,1,4-6H2,2-3H3/t8-,9+/m1/s1

>  <InChI-Key>
AZOCECCLWFDTAP-BDAKNGLRSA-N

>  <Smiles>
C[C@H](CC[C@@H](C1)C(C)=C)C1=O

>  <Molecular Formula>
C10H16O

$$$$
thymoquinone
Actelion Java MolfileCreator 2.0

  0  0  0  0  0  0              0 V3000
M  V30 BEGIN CTAB
M  V30 COUNTS 12 12 0 0 0
M  V30 BEGIN ATOM
M  V30 1 O 0.0 0.0 0.0 0
M  V30 2 C 1.2231 -0.7124 0.0 0
M  V30 3 C 2.4463 0.1612 0.0 0
M  V30 4 C 1.0887 -2.164 0.0 0
M  V30 5 C 3.6695 -0.5511 0.0 0
M  V30 6 C 2.3119 1.8818 0.0 0
M  V30 7 C 2.3119 -2.8764 0.0 0
M  V30 8 C 3.5351 -2.0027 0.0 0
M  V30 9 C 0.8199 2.7555 0.0 0
M  V30 10 C 3.5351 2.7555 0.0 0
M  V30 11 C 2.1775 -4.3281 0.0 0
M  V30 12 O 4.7582 -2.7151 0.0 0
M  V30 END ATOM
M  V30 BEGIN BOND
M  V30 1 2 1 2
M  V30 2 1 2 3
M  V30 3 1 2 4
M  V30 4 2 3 5
M  V30 5 1 3 6
M  V30 6 2 4 7
M  V30 7 1 5 8
M  V30 8 1 6 9
M  V30 9 1 6 10
M  V30 10 1 7 11
M  V30 11 2 8 12
M  V30 12 1 7 8
M  V30 END BOND
M  V30 END CTAB
M  END
>  <Molecule Name>
thymoquinone

>  <Molecule Name 2>
thymoquinone

>  <Database>
Essential Oil Database

>  <InChI>
InChI=1S/C10H12O2/c1-6(2)8-5-9(11)7(3)4-10(8)12/h4-6H,1-3H3

>  <InChI-Key>
KEQHJBNSCLWCAE-UHFFFAOYSA-N

>  <Smiles>
CC(C)C(C(C=C1C)=O)=CC1=O

>  <Molecular Formula>
C10H12O2

$$$$
6-hydroxycarvone
Actelion Java MolfileCreator 2.0

  0  0  0  0  0  0              0 V3000
M  V30 BEGIN CTAB
M  V30 COUNTS 12 12 0 0 0
M  V30 BEGIN ATOM
M  V30 1 O 0.0 0.0 0.0 0
M  V30 2 C 1.1817 0.8311 0.0 0
M  V30 3 C 2.3635 0.1428 0.0 0
M  V30 4 C 1.0519 2.4934 0.0 0
M  V30 5 C 3.5453 0.9869 0.0 0
M  V30 6 C 2.2337 -1.2597 0.0 0
M  V30 7 C 2.2337 3.3505 0.0 0 CFG=1
M  V30 8 O 4.7271 0.2986 0.0 0
M  V30 9 C 3.4155 2.6493 0.0 0
M  V30 10 C 2.1038 5.0128 0.0 0
M  V30 11 C 3.2856 5.857 0.0 0
M  V30 12 C 0.6623 5.857 0.0 0
M  V30 END ATOM
M  V30 BEGIN BOND
M  V30 1 2 1 2
M  V30 2 1 2 3
M  V30 3 1 2 4
M  V30 4 2 3 5
M  V30 5 1 3 6
M  V30 6 1 4 7
M  V30 7 1 5 8
M  V30 8 1 5 9
M  V30 9 1 7 10 CFG=3
M  V30 10 2 10 11
M  V30 11 1 10 12
M  V30 12 1 7 9
M  V30 END BOND
M  V30 BEGIN COLLECTION
M  V30 MDLV30/STERAC1 ATOMS=(1 7)
M  V30 END COLLECTION
M  V30 END CTAB
M  END
>  <Molecule Name>
6-hydroxycarvone

>  <Molecule Name 2>
6-hydroxycarvone

>  <Database>
Essential Oil Database

>  <InChI>
InChI=1S/C10H14O2/c1-6(2)8-4-9(11)7(3)10(12)5-8/h8,11H,1,4-5H2,2-3H3/t8-/m1/s1

>  <InChI-Key>
XPEAPCMHDFIXFL-MRVPVSSYSA-N

>  <Smiles>
CC(C(C1)CC(O)=C(C)C1=O)=C

>  <Molecular Formula>
C10H14O2

$$$$
cis-2-pentylcyclopropane-1-carboxylic acid
Actelion Java MolfileCreator 2.0

  0  0  0  0  0  0              0 V3000
M  V30 BEGIN CTAB
M  V30 COUNTS 11 11 0 0 0
M  V30 BEGIN ATOM
M  V30 1 O 0.0 0.0 0.0 0
M  V30 2 C -0.1167 -1.4588 0.0 0
M  V30 3 O -1.6105 -2.0774 0.0 0
M  V30 4 C 1.1437 -2.0774 0.0 0 CFG=2
M  V30 5 C 2.6025 -1.9606 0.0 0 CFG=1
M  V30 6 C 1.7622 -3.3378 0.0 0
M  V30 7 C 3.863 -1.0153 0.0 0
M  V30 8 C 5.1234 -1.6339 0.0 0
M  V30 9 C 6.3839 -0.6885 0.0 0
M  V30 10 C 7.6443 -1.3071 0.0 0
M  V30 11 C 8.9048 -0.3617 0.0 0
M  V30 END ATOM
M  V30 BEGIN BOND
M  V30 1 2 1 2
M  V30 2 1 2 3
M  V30 3 1 4 2 CFG=3
M  V30 4 1 4 5
M  V30 5 1 4 6
M  V30 6 1 5 7 CFG=3
M  V30 7 1 7 8
M  V30 8 1 8 9
M  V30 9 1 9 10
M  V30 10 1 10 11
M  V30 11 1 5 6
M  V30 END BOND
M  V30 BEGIN COLLECTION
M  V30 MDLV30/STERAC1 ATOMS=(2 4 5)
M  V30 END COLLECTION
M  V30 END CTAB
M  END
>  <Molecule Name>
cis-2-pentylcyclopropane-1-carboxylic acid

>  <Molecule Name 2>
cis-2-pentylcyclopropane-1-carboxylic acid

>  <Database>
Essential Oil Database

>  <InChI>
InChI=1S/C9H16O2/c1-2-3-4-5-7-6-8(7)9(10)11/h7-8H,2-6H2,1H3,(H,10,11)/t7-,8+/m1/s1

>  <InChI-Key>
ZWABCHPDBORTSF-SFYZADRCSA-N

>  <Smiles>
CCCCC[C@H](C1)[C@H]1C(O)=O

>  <Molecular Formula>
C9H16O2

$$$$
citronellic acid
Actelion Java MolfileCreator 2.0

  0  0  0  0  0  0              0 V3000
M  V30 BEGIN CTAB
M  V30 COUNTS 12 11 0 0 0
M  V30 BEGIN ATOM
M  V30 1 O 0.0 0.0 0.0 0
M  V30 2 C -0.1221 1.5629 0.0 0
M  V30 3 O 0.989 2.3565 0.0 0
M  V30 4 C -1.4774 2.3565 0.0 0
M  V30 5 C -2.8327 1.6972 0.0 0 CFG=2
M  V30 6 C -4.1881 2.5031 0.0 0
M  V30 7 C -2.9548 0.3785 0.0 0
M  V30 8 C -5.5434 1.8437 0.0 0
M  V30 9 C -6.8988 2.6496 0.0 0
M  V30 10 C -7.0209 4.2125 0.0 0
M  V30 11 C -8.3762 5.0062 0.0 0
M  V30 12 C -5.9097 5.0062 0.0 0
M  V30 END ATOM
M  V30 BEGIN BOND
M  V30 1 2 1 2
M  V30 2 1 2 3
M  V30 3 1 2 4
M  V30 4 1 4 5
M  V30 5 1 5 6
M  V30 6 1 5 7 CFG=1
M  V30 7 1 6 8
M  V30 8 1 8 9
M  V30 9 2 9 10
M  V30 10 1 10 11
M  V30 11 1 10 12
M  V30 END BOND
M  V30 BEGIN COLLECTION
M  V30 MDLV30/STERAC1 ATOMS=(1 5)
M  V30 END COLLECTION
M  V30 END CTAB
M  END
>  <Molecule Name>
citronellic acid

>  <Molecule Name 2>
citronellic acid

>  <Database>
Essential Oil Database

>  <InChI>
InChI=1S/C10H18O2/c1-8(2)5-4-6-9(3)7-10(11)12/h5,9H,4,6-7H2,1-3H3,(H,11,12)/t9-/m0/s1

>  <InChI-Key>
GJWSUKYXUMVMGX-VIFPVBQESA-N

>  <Smiles>
CC(CCC=C(C)C)CC(O)=O

>  <Molecular Formula>
C10H18O2

$$$$
(e)-2-hexenoic acid
Actelion Java MolfileCreator 2.0

  0  0  0  0  0  0              0 V3000
M  V30 BEGIN CTAB
M  V30 COUNTS 8 7 0 0 0
M  V30 BEGIN ATOM
M  V30 1 O 0.0 0.0 0.0 0
M  V30 2 C -1.5814 0.1235 0.0 0
M  V30 3 O -2.3844 1.4949 0.0 0
M  V30 4 C -2.3844 -1.0007 0.0 0
M  V30 5 C -3.9658 -0.8771 0.0 0
M  V30 6 C -4.7689 -2.0014 0.0 0
M  V30 7 C -6.3503 -1.8779 0.0 0
M  V30 8 C -7.1657 -3.0022 0.0 0
M  V30 END ATOM
M  V30 BEGIN BOND
M  V30 1 2 1 2
M  V30 2 1 2 3
M  V30 3 1 2 4
M  V30 4 2 4 5
M  V30 5 1 5 6
M  V30 6 1 6 7
M  V30 7 1 7 8
M  V30 END BOND
M  V30 END CTAB
M  END
>  <Molecule Name>
(e)-2-hexenoic acid

>  <Molecule Name 2>
(e)-2-hexenoic acid

>  <Database>
Essential Oil Database

>  <InChI>
InChI=1S/C6H10O2/c1-2-3-4-5-6(7)8/h4-5H,2-3H2,1H3,(H,7,8)/b5-4+

>  <InChI-Key>
NIONDZDPPYHYKY-SNAWJCMRSA-N

>  <Smiles>
CCC/C=C/C(O)=O

>  <Molecular Formula>
C6H10O2

$$$$
(e)-2-nonenoic acid
Actelion Java MolfileCreator 2.0

  0  0  0  0  0  0              0 V3000
M  V30 BEGIN CTAB
M  V30 COUNTS 11 10 0 0 0
M  V30 BEGIN ATOM
M  V30 1 O 0.0 0.0 0.0 0
M  V30 2 C 1.2747 -0.6315 0.0 0
M  V30 3 O 1.1577 -2.105 0.0 0
M  V30 4 C 2.5494 0.3391 0.0 0
M  V30 5 C 3.8241 -0.2923 0.0 0
M  V30 6 C 5.0989 0.6782 0.0 0
M  V30 7 C 6.3736 0.0467 0.0 0
M  V30 8 C 7.6483 1.0174 0.0 0
M  V30 9 C 8.9231 0.3859 0.0 0
M  V30 10 C 10.1978 1.3565 0.0 0
M  V30 11 C 11.4725 0.725 0.0 0
M  V30 END ATOM
M  V30 BEGIN BOND
M  V30 1 2 1 2
M  V30 2 1 2 3
M  V30 3 1 2 4
M  V30 4 2 4 5
M  V30 5 1 5 6
M  V30 6 1 6 7
M  V30 7 1 7 8
M  V30 8 1 8 9
M  V30 9 1 9 10
M  V30 10 1 10 11
M  V30 END BOND
M  V30 END CTAB
M  END
>  <Molecule Name>
(e)-2-nonenoic acid

>  <Molecule Name 2>
(e)-2-nonenoic acid

>  <Database>
Essential Oil Database

>  <InChI>
InChI=1S/C9H16O2/c1-2-3-4-5-6-7-8-9(10)11/h7-8H,2-6H2,1H3,(H,10,11)/b8-7+

>  <InChI-Key>
ADLXTJMPCFOTOO-BQYQJAHWSA-N

>  <Smiles>
CCCCCC/C=C/C(O)=O

>  <Molecular Formula>
C9H16O2

$$$$
(e)-2-octenoic acid
Actelion Java MolfileCreator 2.0

  0  0  0  0  0  0              0 V3000
M  V30 BEGIN CTAB
M  V30 COUNTS 10 9 0 0 0
M  V30 BEGIN ATOM
M  V30 1 O 0.0 0.0 0.0 0
M  V30 2 C 1.2733 -0.6191 0.0 0
M  V30 3 O 1.1565 -2.0911 0.0 0
M  V30 4 C 2.5467 0.3387 0.0 0
M  V30 5 C 3.82 -0.2803 0.0 0
M  V30 6 C 5.0934 0.6658 0.0 0
M  V30 7 C 6.3667 0.0467 0.0 0
M  V30 8 C 7.6401 0.9929 0.0 0
M  V30 9 C 8.9134 0.3738 0.0 0
M  V30 10 C 10.1868 1.3317 0.0 0
M  V30 END ATOM
M  V30 BEGIN BOND
M  V30 1 2 1 2
M  V30 2 1 2 3
M  V30 3 1 2 4
M  V30 4 2 4 5
M  V30 5 1 5 6
M  V30 6 1 6 7
M  V30 7 1 7 8
M  V30 8 1 8 9
M  V30 9 1 9 10
M  V30 END BOND
M  V30 END CTAB
M  END
>  <Molecule Name>
(e)-2-octenoic acid

>  <Molecule Name 2>
(e)-2-octenoic acid

>  <Database>
Essential Oil Database

>  <InChI>
InChI=1S/C8H14O2/c1-2-3-4-5-6-7-8(9)10/h6-7H,2-5H2,1H3,(H,9,10)/b7-6+

>  <InChI-Key>
CWMPPVPFLSZGCY-VOTSOKGWSA-N

>  <Smiles>
CCCCC/C=C/C(O)=O

>  <Molecular Formula>
C8H14O2

$$$$
perillic acid
Actelion Java MolfileCreator 2.0

  0  0  0  0  0  0              0 V3000
M  V30 BEGIN CTAB
M  V30 COUNTS 12 12 0 0 0
M  V30 BEGIN ATOM
M  V30 1 O 0.0 0.0 0.0 0
M  V30 2 C 1.128 0.7933 0.0 0
M  V30 3 O 2.2561 0.1239 0.0 0
M  V30 4 C 1.0041 2.3801 0.0 0
M  V30 5 C -0.3718 3.1859 0.0 0
M  V30 6 C 2.1322 3.1859 0.0 0
M  V30 7 C -0.4958 4.7726 0.0 0
M  V30 8 C 2.0082 4.7726 0.0 0
M  V30 9 C 0.6322 5.5784 0.0 0 CFG=2
M  V30 10 C 0.5082 7.1652 0.0 0
M  V30 11 C 1.6363 7.971 0.0 0
M  V30 12 C -0.8677 7.971 0.0 0
M  V30 END ATOM
M  V30 BEGIN BOND
M  V30 1 2 1 2
M  V30 2 1 2 3
M  V30 3 1 2 4
M  V30 4 2 4 5
M  V30 5 1 4 6
M  V30 6 1 5 7
M  V30 7 1 6 8
M  V30 8 1 7 9
M  V30 9 1 9 10 CFG=1
M  V30 10 2 10 11
M  V30 11 1 10 12
M  V30 12 1 8 9
M  V30 END BOND
M  V30 BEGIN COLLECTION
M  V30 MDLV30/STERAC1 ATOMS=(1 9)
M  V30 END COLLECTION
M  V30 END CTAB
M  END
>  <Molecule Name>
perillic acid

>  <Molecule Name 2>
perillic acid

>  <Database>
Essential Oil Database

>  <InChI>
InChI=1S/C10H14O2/c1-7(2)8-3-5-9(6-4-8)10(11)12/h5,8H,1,3-4,6H2,2H3,(H,11,12)/t8-/m1/s1

>  <InChI-Key>
CDSMSBUVCWHORP-MRVPVSSYSA-N

>  <Smiles>
CC(C(CC1)CC=C1C(O)=O)=C

>  <Molecular Formula>
C10H14O2

$$$$
propanoic acid
Actelion Java MolfileCreator 2.0

  0  0  0  0  0  0              0 V3000
M  V30 BEGIN CTAB
M  V30 COUNTS 5 4 0 0 0
M  V30 BEGIN ATOM
M  V30 1 O 0.0 0.0 0.0 0
M  V30 2 C 1.3999 0.1119 0.0 0
M  V30 3 O 1.9935 -1.0975 0.0 0
M  V30 4 C 1.9935 1.5455 0.0 0
M  V30 5 C 1.0863 2.9791 0.0 0
M  V30 END ATOM
M  V30 BEGIN BOND
M  V30 1 2 1 2
M  V30 2 1 2 3
M  V30 3 1 2 4
M  V30 4 1 4 5
M  V30 END BOND
M  V30 END CTAB
M  END
>  <Molecule Name>
propanoic acid

>  <Molecule Name 2>
propanoic acid

>  <Database>
Essential Oil Database

>  <InChI>
InChI=1S/C3H6O2/c1-2-3(4)5/h2H2,1H3,(H,4,5)

>  <InChI-Key>
XBDQKXXYIPTUBI-UHFFFAOYSA-N

>  <Smiles>
CCC(O)=O

>  <Molecular Formula>
C3H6O2

$$$$
salicylic acid
Actelion Java MolfileCreator 2.0

  0  0  0  0  0  0              0 V3000
M  V30 BEGIN CTAB
M  V30 COUNTS 10 10 0 0 0
M  V30 BEGIN ATOM
M  V30 1 O 0.0 0.0 0.0 0
M  V30 2 C -1.4383 -0.5955 0.0 0
M  V30 3 O -2.8767 0.3034 0.0 0
M  V30 4 C -1.5507 -2.0002 0.0 0
M  V30 5 C -2.9891 -2.5958 0.0 0
M  V30 6 C -0.3371 -2.5958 0.0 0
M  V30 7 O -4.4274 -1.6855 0.0 0
M  V30 8 C -3.1014 -4.0004 0.0 0
M  V30 9 C -0.4494 -4.0004 0.0 0
M  V30 10 C -1.8878 -4.596 0.0 0
M  V30 END ATOM
M  V30 BEGIN BOND
M  V30 1 2 1 2
M  V30 2 1 2 3
M  V30 3 1 2 4
M  V30 4 2 4 5
M  V30 5 1 4 6
M  V30 6 1 5 7
M  V30 7 1 5 8
M  V30 8 2 6 9
M  V30 9 2 8 10
M  V30 10 1 9 10
M  V30 END BOND
M  V30 END CTAB
M  END
>  <Molecule Name>
salicylic acid

>  <Molecule Name 2>
salicylic acid

>  <Database>
Essential Oil Database

>  <InChI>
InChI=1S/C7H6O3/c8-6-4-2-1-3-5(6)7(9)10/h1-4,8H,(H,9,10)

>  <InChI-Key>
YGSDEFSMJLZEOE-UHFFFAOYSA-N

>  <Smiles>
OC(c(cccc1)c1O)=O

>  <Molecular Formula>
C7H6O3

$$$$
tiglic acid
Actelion Java MolfileCreator 2.0

  0  0  0  0  0  0              0 V3000
M  V30 BEGIN CTAB
M  V30 COUNTS 7 6 0 0 0
M  V30 BEGIN ATOM
M  V30 1 O 0.0 0.0 0.0 0
M  V30 2 C 1.4068 0.1125 0.0 0
M  V30 3 O 2.0033 -1.1029 0.0 0
M  V30 4 C 2.0033 1.5531 0.0 0
M  V30 5 C 3.4102 1.6657 0.0 0
M  V30 6 C 1.0917 2.9937 0.0 0
M  V30 7 C 4.0067 3.1063 0.0 0
M  V30 END ATOM
M  V30 BEGIN BOND
M  V30 1 2 1 2
M  V30 2 1 2 3
M  V30 3 1 2 4
M  V30 4 2 4 5
M  V30 5 1 4 6
M  V30 6 1 5 7
M  V30 END BOND
M  V30 END CTAB
M  END
>  <Molecule Name>
tiglic acid

>  <Molecule Name 2>
tiglic acid

>  <Database>
Essential Oil Database

>  <InChI>
InChI=1S/C5H8O2/c1-3-4(2)5(6)7/h3H,1-2H3,(H,6,7)/b4-3+

>  <InChI-Key>
UIERETOOQGIECD-ONEGZZNKSA-N

>  <Smiles>
C/C=C(\C)/C(O)=O

>  <Molecular Formula>
C5H8O2

$$$$
trans-2-pentylcyclopropane-1-carboxylic acid
Actelion Java MolfileCreator 2.0

  0  0  0  0  0  0              0 V3000
M  V30 BEGIN CTAB
M  V30 COUNTS 11 11 0 0 0
M  V30 BEGIN ATOM
M  V30 1 O 0.0 0.0 0.0 0
M  V30 2 C -0.1167 -1.4588 0.0 0
M  V30 3 O -1.6105 -2.0774 0.0 0
M  V30 4 C 1.1437 -2.0774 0.0 0 CFG=2
M  V30 5 C 2.6025 -1.9606 0.0 0 CFG=2
M  V30 6 C 1.7622 -3.3378 0.0 0
M  V30 7 C 3.863 -1.0153 0.0 0
M  V30 8 C 5.1234 -1.6339 0.0 0
M  V30 9 C 6.3839 -0.6885 0.0 0
M  V30 10 C 7.6443 -1.3071 0.0 0
M  V30 11 C 8.9048 -0.3617 0.0 0
M  V30 END ATOM
M  V30 BEGIN BOND
M  V30 1 2 1 2
M  V30 2 1 2 3
M  V30 3 1 4 2 CFG=3
M  V30 4 1 4 5
M  V30 5 1 4 6
M  V30 6 1 5 7 CFG=1
M  V30 7 1 7 8
M  V30 8 1 8 9
M  V30 9 1 9 10
M  V30 10 1 10 11
M  V30 11 1 5 6
M  V30 END BOND
M  V30 BEGIN COLLECTION
M  V30 MDLV30/STERAC1 ATOMS=(2 4 5)
M  V30 END COLLECTION
M  V30 END CTAB
M  END
>  <Molecule Name>
trans-2-pentylcyclopropane-1-carboxylic acid

>  <Molecule Name 2>
trans-2-pentylcyclopropane-1-carboxylic acid

>  <Database>
Essential Oil Database

>  <InChI>
InChI=1S/C9H16O2/c1-2-3-4-5-7-6-8(7)9(10)11/h7-8H,2-6H2,1H3,(H,10,11)/t7-,8-/m0/s1

>  <InChI-Key>
ZWABCHPDBORTSF-YUMQZZPRSA-N

>  <Smiles>
CCCCC[C@@H](C1)[C@H]1C(O)=O

>  <Molecular Formula>
C9H16O2

$$$$
valeric acid
Actelion Java MolfileCreator 2.0

  0  0  0  0  0  0              0 V3000
M  V30 BEGIN CTAB
M  V30 COUNTS 7 6 0 0 0
M  V30 BEGIN ATOM
M  V30 1 O 0.0 0.0 0.0 0
M  V30 2 C -0.121 1.5494 0.0 0
M  V30 3 O 0.9805 2.3362 0.0 0
M  V30 4 C -1.4647 2.3362 0.0 0
M  V30 5 C -2.8083 1.6947 0.0 0
M  V30 6 C -4.152 2.4815 0.0 0
M  V30 7 C -5.4956 1.8399 0.0 0
M  V30 END ATOM
M  V30 BEGIN BOND
M  V30 1 2 1 2
M  V30 2 1 2 3
M  V30 3 1 2 4
M  V30 4 1 4 5
M  V30 5 1 5 6
M  V30 6 1 6 7
M  V30 END BOND
M  V30 END CTAB
M  END
>  <Molecule Name>
valeric acid

>  <Molecule Name 2>
valeric acid

>  <Database>
Essential Oil Database

>  <InChI>
InChI=1S/C5H10O2/c1-2-3-4-5(6)7/h2-4H2,1H3,(H,6,7)

>  <InChI-Key>
NQPDZGIKBAWPEJ-UHFFFAOYSA-N

>  <Smiles>
CCCCC(O)=O

>  <Molecular Formula>
C5H10O2

$$$$
(z)-3-heptenoic acid
Actelion Java MolfileCreator 2.0

  0  0  0  0  0  0              0 V3000
M  V30 BEGIN CTAB
M  V30 COUNTS 9 8 0 0 0
M  V30 BEGIN ATOM
M  V30 1 O 0.0 0.0 0.0 0
M  V30 2 C 1.3702 0.1268 0.0 0
M  V30 3 O 2.0426 -1.0276 0.0 0
M  V30 4 C 2.0426 1.5351 0.0 0
M  V30 5 C 1.2179 2.9433 0.0 0
M  V30 6 C -0.4059 3.0702 0.0 0
M  V30 7 C -1.2306 1.9157 0.0 0
M  V30 8 C -2.8545 2.0426 0.0 0
M  V30 9 C -3.6792 0.888 0.0 0
M  V30 END ATOM
M  V30 BEGIN BOND
M  V30 1 2 1 2
M  V30 2 1 2 3
M  V30 3 1 2 4
M  V30 4 1 4 5
M  V30 5 2 5 6
M  V30 6 1 6 7
M  V30 7 1 7 8
M  V30 8 1 8 9
M  V30 END BOND
M  V30 END CTAB
M  END
>  <Molecule Name>
(z)-3-heptenoic acid

>  <Molecule Name 2>
(z)-3-heptenoic acid

>  <Database>
Essential Oil Database

>  <InChI>
InChI=1S/C7H12O2/c1-2-3-4-5-6-7(8)9/h4-5H,2-3,6H2,1H3,(H,8,9)/b5-4-

>  <InChI-Key>
BCYXFRMDZWKZSF-PLNGDYQASA-N

>  <Smiles>
CCC/C=C\CC(O)=O

>  <Molecular Formula>
C7H12O2

$$$$
(z)-3-hexenoic acid
Actelion Java MolfileCreator 2.0

  0  0  0  0  0  0              0 V3000
M  V30 BEGIN CTAB
M  V30 COUNTS 8 7 0 0 0
M  V30 BEGIN ATOM
M  V30 1 O 0.0 0.0 0.0 0
M  V30 2 C 1.3596 0.1258 0.0 0
M  V30 3 O 2.0269 -1.0197 0.0 0
M  V30 4 C 2.0269 1.5233 0.0 0
M  V30 5 C 1.2086 2.9208 0.0 0
M  V30 6 C -0.4028 3.0467 0.0 0
M  V30 7 C -1.2211 1.901 0.0 0
M  V30 8 C -2.8326 2.0269 0.0 0
M  V30 END ATOM
M  V30 BEGIN BOND
M  V30 1 2 1 2
M  V30 2 1 2 3
M  V30 3 1 2 4
M  V30 4 1 4 5
M  V30 5 2 5 6
M  V30 6 1 6 7
M  V30 7 1 7 8
M  V30 END BOND
M  V30 END CTAB
M  END
>  <Molecule Name>
(z)-3-hexenoic acid

>  <Molecule Name 2>
(z)-3-hexenoic acid

>  <Database>
Essential Oil Database

>  <InChI>
InChI=1S/C6H10O2/c1-2-3-4-5-6(7)8/h3-4H,2,5H2,1H3,(H,7,8)/b4-3-

>  <InChI-Key>
XXHDAWYDNSXJQM-ARJAWSKDSA-N

>  <Smiles>
CC/C=C\CC(O)=O

>  <Molecular Formula>
C6H10O2

$$$$
(z)-3-octenoic acid
Actelion Java MolfileCreator 2.0

  0  0  0  0  0  0              0 V3000
M  V30 BEGIN CTAB
M  V30 COUNTS 10 9 0 0 0
M  V30 BEGIN ATOM
M  V30 1 O 0.0 0.0 0.0 0
M  V30 2 C -0.7735 1.3415 0.0 0
M  V30 3 O -0.1329 2.6831 0.0 0
M  V30 4 C -2.3205 1.4624 0.0 0
M  V30 5 C -3.1061 2.8039 0.0 0
M  V30 6 C -4.6531 2.9248 0.0 0
M  V30 7 C -5.4387 1.825 0.0 0
M  V30 8 C -6.9857 1.9458 0.0 0
M  V30 9 C -7.7713 0.846 0.0 0
M  V30 10 C -9.3183 0.9668 0.0 0
M  V30 END ATOM
M  V30 BEGIN BOND
M  V30 1 2 1 2
M  V30 2 1 2 3
M  V30 3 1 2 4
M  V30 4 1 4 5
M  V30 5 2 5 6
M  V30 6 1 6 7
M  V30 7 1 7 8
M  V30 8 1 8 9
M  V30 9 1 9 10
M  V30 END BOND
M  V30 END CTAB
M  END
>  <Molecule Name>
(z)-3-octenoic acid

>  <Molecule Name 2>
(z)-3-octenoic acid

>  <Database>
Essential Oil Database

>  <InChI>
InChI=1S/C8H14O2/c1-2-3-4-5-6-7-8(9)10/h5-6H,2-4,7H2,1H3,(H,9,10)/b6-5-

>  <InChI-Key>
IWPOSDLLFZKGOW-WAYWQWQTSA-N

>  <Smiles>
CCCC/C=C\CC(O)=O

>  <Molecular Formula>
C8H14O2

$$$$
(z)-4-heptenoic acid
Actelion Java MolfileCreator 2.0

  0  0  0  0  0  0              0 V3000
M  V30 BEGIN CTAB
M  V30 COUNTS 9 8 0 0 0
M  V30 BEGIN ATOM
M  V30 1 O 0.0 0.0 0.0 0
M  V30 2 C 0.6455 1.3519 0.0 0
M  V30 3 O 1.9609 1.4737 0.0 0
M  V30 4 C -0.1339 2.7039 0.0 0
M  V30 5 C -1.693 2.8257 0.0 0
M  V30 6 C -2.4847 4.1777 0.0 0
M  V30 7 C -4.0437 4.2995 0.0 0
M  V30 8 C -4.8354 3.1911 0.0 0
M  V30 9 C -6.3944 3.3129 0.0 0
M  V30 END ATOM
M  V30 BEGIN BOND
M  V30 1 2 1 2
M  V30 2 1 2 3
M  V30 3 1 2 4
M  V30 4 1 4 5
M  V30 5 1 5 6
M  V30 6 2 6 7
M  V30 7 1 7 8
M  V30 8 1 8 9
M  V30 END BOND
M  V30 END CTAB
M  END
>  <Molecule Name>
(z)-4-heptenoic acid

>  <Molecule Name 2>
(z)-4-heptenoic acid

>  <Database>
Essential Oil Database

>  <InChI>
InChI=1S/C7H12O2/c1-2-3-4-5-6-7(8)9/h3-4H,2,5-6H2,1H3,(H,8,9)/b4-3-

>  <InChI-Key>
KFXPOIKSDYRVKS-ARJAWSKDSA-N

>  <Smiles>
CC/C=C\CCC(O)=O

>  <Molecular Formula>
C7H12O2

$$$$
(z)-5-heptenoic acid
Actelion Java MolfileCreator 2.0

  0  0  0  0  0  0              0 V3000
M  V30 BEGIN CTAB
M  V30 COUNTS 9 8 0 0 0
M  V30 BEGIN ATOM
M  V30 1 O 0.0 0.0 0.0 0
M  V30 2 C -0.1298 -1.4019 0.0 0
M  V30 3 O -1.5706 -2.0899 0.0 0
M  V30 4 C 1.0514 -2.0899 0.0 0
M  V30 5 C 2.2326 -1.2331 0.0 0
M  V30 6 C 3.4139 -1.9211 0.0 0
M  V30 7 C 4.5952 -1.0644 0.0 0
M  V30 8 C 4.4653 0.5971 0.0 0
M  V30 9 C 3.0245 1.4538 0.0 0
M  V30 END ATOM
M  V30 BEGIN BOND
M  V30 1 2 1 2
M  V30 2 1 2 3
M  V30 3 1 2 4
M  V30 4 1 4 5
M  V30 5 1 5 6
M  V30 6 1 6 7
M  V30 7 2 7 8
M  V30 8 1 8 9
M  V30 END BOND
M  V30 END CTAB
M  END
>  <Molecule Name>
(z)-5-heptenoic acid

>  <Molecule Name 2>
(z)-5-heptenoic acid

>  <Database>
Essential Oil Database

>  <InChI>
InChI=1S/C7H12O2/c1-2-3-4-5-6-7(8)9/h2-3H,4-6H2,1H3,(H,8,9)/b3-2-

>  <InChI-Key>
KPSZWAJWFMFMFF-IHWYPQMZSA-N

>  <Smiles>
C/C=C\CCCC(O)=O

>  <Molecular Formula>
C7H12O2

$$$$
(z)-5-octenoic acid
Actelion Java MolfileCreator 2.0

  0  0  0  0  0  0              0 V3000
M  V30 BEGIN CTAB
M  V30 COUNTS 10 9 0 0 0
M  V30 BEGIN ATOM
M  V30 1 O 0.0 0.0 0.0 0
M  V30 2 C -0.1183 -1.4795 0.0 0
M  V30 3 O -1.6334 -2.1068 0.0 0
M  V30 4 C 1.1599 -2.1068 0.0 0
M  V30 5 C 2.4382 -1.1481 0.0 0
M  V30 6 C 3.7166 -1.7754 0.0 0
M  V30 7 C 3.5982 -3.255 0.0 0
M  V30 8 C 4.8765 -3.8823 0.0 0
M  V30 9 C 6.1549 -2.9235 0.0 0
M  V30 10 C 7.4332 -3.5509 0.0 0
M  V30 END ATOM
M  V30 BEGIN BOND
M  V30 1 2 1 2
M  V30 2 1 2 3
M  V30 3 1 2 4
M  V30 4 1 4 5
M  V30 5 1 5 6
M  V30 6 1 6 7
M  V30 7 2 7 8
M  V30 8 1 8 9
M  V30 9 1 9 10
M  V30 END BOND
M  V30 END CTAB
M  END
>  <Molecule Name>
(z)-5-octenoic acid

>  <Molecule Name 2>
(z)-5-octenoic acid

>  <Database>
Essential Oil Database

>  <InChI>
InChI=1S/C8H14O2/c1-2-3-4-5-6-7-8(9)10/h3-4H,2,5-7H2,1H3,(H,9,10)/b4-3-

>  <InChI-Key>
RRGOKSYVAZDNKR-ARJAWSKDSA-N

>  <Smiles>
CC/C=C\CCCC(O)=O

>  <Molecular Formula>
C8H14O2

$$$$
4-isopropylsalicylaldehyde
Actelion Java MolfileCreator 2.0

  0  0  0  0  0  0              0 V3000
M  V30 BEGIN CTAB
M  V30 COUNTS 12 12 0 0 0
M  V30 BEGIN ATOM
M  V30 1 O 0.0 0.0 0.0 0
M  V30 2 C -0.1363 -1.4725 0.0 0
M  V30 3 C 1.1044 -2.1952 0.0 0
M  V30 4 C 2.3452 -1.2953 0.0 0
M  V30 5 C 0.968 -3.6678 0.0 0
M  V30 6 O 2.2088 0.4499 0.0 0
M  V30 7 C 3.586 -2.0179 0.0 0
M  V30 8 C 2.2088 -4.3904 0.0 0
M  V30 9 C 3.4496 -3.4905 0.0 0
M  V30 10 C 4.6904 -4.2132 0.0 0
M  V30 11 C 5.9312 -3.3269 0.0 0
M  V30 12 C 4.554 -5.6857 0.0 0
M  V30 END ATOM
M  V30 BEGIN BOND
M  V30 1 2 1 2
M  V30 2 1 2 3
M  V30 3 2 3 4
M  V30 4 1 3 5
M  V30 5 1 4 6
M  V30 6 1 4 7
M  V30 7 2 5 8
M  V30 8 2 7 9
M  V30 9 1 9 10
M  V30 10 1 10 11
M  V30 11 1 10 12
M  V30 12 1 8 9
M  V30 END BOND
M  V30 END CTAB
M  END
>  <Molecule Name>
4-isopropylsalicylaldehyde

>  <Molecule Name 2>
4-isopropylsalicylaldehyde

>  <Database>
Essential Oil Database

>  <InChI>
InChI=1S/C10H12O2/c1-7(2)8-3-4-9(6-11)10(12)5-8/h3-7,12H,1-2H3

>  <InChI-Key>
NSLDZVUVKUIYNL-UHFFFAOYSA-N

>  <Smiles>
CC(C)c1cc(O)c(C=O)cc1

>  <Molecular Formula>
C10H12O2

$$$$
3,4-dimethyl-5-pentylidene-2(5h)-furanone
Actelion Java MolfileCreator 2.0

  0  0  0  0  0  0              0 V3000
M  V30 BEGIN CTAB
M  V30 COUNTS 13 13 0 0 0
M  V30 BEGIN ATOM
M  V30 1 O 0.0 0.0 0.0 0
M  V30 2 C -0.9021 1.2345 0.0 0
M  V30 3 O -0.5579 2.6828 0.0 0
M  V30 4 C -2.4216 1.3532 0.0 0
M  V30 5 C -1.7925 3.585 0.0 0
M  V30 6 C -3.0033 2.8015 0.0 0
M  V30 7 C -3.3238 0.3561 0.0 0
M  V30 8 C -1.9112 5.1044 0.0 0
M  V30 9 C -4.4515 3.3832 0.0 0
M  V30 10 C -3.2288 5.8879 0.0 0
M  V30 11 C -4.5465 5.2469 0.0 0
M  V30 12 C -5.8642 6.0304 0.0 0
M  V30 13 C -7.1819 5.3894 0.0 0
M  V30 END ATOM
M  V30 BEGIN BOND
M  V30 1 2 1 2
M  V30 2 1 2 3
M  V30 3 1 2 4
M  V30 4 1 3 5
M  V30 5 2 4 6
M  V30 6 1 4 7
M  V30 7 2 5 8
M  V30 8 1 6 9
M  V30 9 1 8 10
M  V30 10 1 10 11
M  V30 11 1 11 12
M  V30 12 1 12 13
M  V30 13 1 5 6
M  V30 END BOND
M  V30 END CTAB
M  END
>  <Molecule Name>
3,4-dimethyl-5-pentylidene-2(5h)-furanone

>  <Molecule Name 2>
3,4-dimethyl-5-pentylidene-2(5h)-furanone

>  <Database>
Essential Oil Database

>  <InChI>
InChI=1S/C11H16O2/c1-4-5-6-7-10-8(2)9(3)11(12)13-10/h7H,4-6H2,1-3H3/b10-7+

>  <InChI-Key>
MTQPZHNZYWAXEH-JXMROGBWSA-N

>  <Smiles>
CCCC/C=C(\C(C)=C1C)/OC1=O

>  <Molecular Formula>
C11H16O2

$$$$
1,2,3,6-tetramethyl-bicyclo(2.2.0)octa-2,5-dien
Actelion Java MolfileCreator 2.0

  0  0  0  0  0  0              0 V3000
M  V30 BEGIN CTAB
M  V30 COUNTS 10 11 0 0 0
M  V30 BEGIN ATOM
M  V30 1 C 0.0 0.0 0.0 0
M  V30 2 C -0.1297 1.6603 0.0 0
M  V30 3 C 1.4009 0.1297 0.0 0
M  V30 4 C -1.1804 -0.9209 0.0 0
M  V30 5 C 1.2712 1.79 0.0 0
M  V30 6 C -1.3101 2.8407 0.0 0
M  V30 7 C 2.8018 0.2594 0.0 0
M  V30 8 C 1.2712 -1.2712 0.0 0
M  V30 9 C 2.6721 1.9198 0.0 0
M  V30 10 C 3.7228 -0.6615 0.0 0
M  V30 END ATOM
M  V30 BEGIN BOND
M  V30 1 2 1 2
M  V30 2 1 1 3
M  V30 3 1 1 4
M  V30 4 1 2 5
M  V30 5 1 2 6
M  V30 6 1 3 7
M  V30 7 1 3 8
M  V30 8 1 5 9
M  V30 9 1 7 10
M  V30 10 1 3 5
M  V30 11 2 7 9
M  V30 END BOND
M  V30 END CTAB
M  END
>  <Molecule Name>
1,2,3,6-tetramethyl-bicyclo(2.2.0)octa-2,5-dien

>  <Molecule Name 2>
1,2,3,6-tetramethyl-bicyclo(2.2.0)octa-2,5-dien

>  <Database>
Essential Oil Database

>  <InChI>
InChI=1S/C10H14/c1-6-5-9-7(2)8(3)10(6,9)4/h5,9H,1-4H3

>  <InChI-Key>
GRISFBPQETWUAC-UHFFFAOYSA-N

>  <Smiles>
CC12C(C)=C(C)C1C=C2C

>  <Molecular Formula>
C10H14

$$$$
beta-humulene
Actelion Java MolfileCreator 2.0

  0  0  0  0  0  0              0 V3000
M  V30 BEGIN CTAB
M  V30 COUNTS 15 15 0 0 0
M  V30 BEGIN ATOM
M  V30 1 C 0.0 0.0 0.0 0
M  V30 2 C -1.1171 1.0282 0.0 0
M  V30 3 C 1.1933 0.5712 0.0 0
M  V30 4 C -0.457 -1.2187 0.0 0
M  V30 5 C 1.3964 2.0438 0.0 0
M  V30 6 C -1.9042 -1.536 0.0 0
M  V30 7 C 0.2792 3.0721 0.0 0
M  V30 8 C -3.0213 -0.5077 0.0 0
M  V30 9 C -1.3202 2.7801 0.0 0
M  V30 10 C -2.8563 1.1171 0.0 0
M  V30 11 C -2.6913 3.5291 0.0 0
M  V30 12 C -1.9169 4.2147 0.0 0
M  V30 13 C -0.7363 4.1131 0.0 0
M  V30 14 C -3.6815 2.4374 0.0 0
M  V30 15 C -4.3416 0.9902 0.0 0
M  V30 END ATOM
M  V30 BEGIN BOND
M  V30 1 2 1 2
M  V30 2 1 1 3
M  V30 3 1 1 4
M  V30 4 1 3 5
M  V30 5 1 4 6
M  V30 6 2 5 7
M  V30 7 1 6 8
M  V30 8 1 7 9
M  V30 9 1 8 10
M  V30 10 1 9 11
M  V30 11 1 9 12
M  V30 12 1 9 13
M  V30 13 2 10 14
M  V30 14 1 10 15
M  V30 15 1 11 14
M  V30 END BOND
M  V30 END CTAB
M  END
>  <Molecule Name>
beta-humulene

>  <Molecule Name 2>
beta-humulene

>  <Database>
Essential Oil Database

>  <InChI>
InChI=1S/C15H24/c1-13-7-5-8-14(2)10-12-15(3,4)11-6-9-13/h6,10-11H,1,5,7-9,12H2,2-4H3/b11-6-,14-10-

>  <InChI-Key>
HAVYZKHVTLAPDZ-PRUKLFJYSA-N

>  <Smiles>
CC(C)(C/C=C(/C)\CCC1)/C=C\CC1=C

>  <Molecular Formula>
C15H24

$$$$
widdrol
Actelion Java MolfileCreator 2.0

  0  0  0  0  0  0              0 V3000
M  V30 BEGIN CTAB
M  V30 COUNTS 16 17 0 0 0
M  V30 BEGIN ATOM
M  V30 1 O 0.0 0.0 0.0 0
M  V30 2 C -1.228 0.9727 0.0 0 CFG=2
M  V30 3 C -2.0183 -0.1945 0.0 0
M  V30 4 C -2.0183 2.3831 0.0 0
M  V30 5 C -0.2431 1.9454 0.0 0
M  V30 6 C -3.5382 -0.4134 0.0 0
M  V30 7 C -3.5382 2.8452 0.0 0
M  V30 8 C -4.7663 0.5593 0.0 0
M  V30 9 C -4.7663 2.0913 0.0 0 CFG=1
M  V30 10 C -6.1159 -0.0972 0.0 0
M  V30 11 C -6.1159 2.8816 0.0 0
M  V30 12 C -5.0095 3.6476 0.0 0
M  V30 13 C -7.4656 0.693 0.0 0
M  V30 14 C -7.1251 -1.0578 0.0 0
M  V30 15 C -5.3499 -1.0578 0.0 0
M  V30 16 C -7.4656 2.225 0.0 0
M  V30 END ATOM
M  V30 BEGIN BOND
M  V30 1 1 2 1 CFG=3
M  V30 2 1 2 3
M  V30 3 1 2 4
M  V30 4 1 2 5
M  V30 5 1 3 6
M  V30 6 1 4 7
M  V30 7 2 6 8
M  V30 8 1 7 9
M  V30 9 1 8 10
M  V30 10 1 9 11
M  V30 11 1 9 12 CFG=3
M  V30 12 1 10 13
M  V30 13 1 10 14
M  V30 14 1 10 15
M  V30 15 1 11 16
M  V30 16 1 8 9
M  V30 17 1 13 16
M  V30 END BOND
M  V30 BEGIN COLLECTION
M  V30 MDLV30/STERAC1 ATOMS=(2 2 9)
M  V30 END COLLECTION
M  V30 END CTAB
M  END
>  <Molecule Name>
widdrol

>  <Molecule Name 2>
widdrol

>  <Database>
Essential Oil Database

>  <InChI>
InChI=1S/C15H26O/c1-13(2)7-5-8-14(3)10-11-15(4,16)9-6-12(13)14/h6,16H,5,7-11H2,1-4H3/t14-,15+/m0/s1

>  <InChI-Key>
BXGVVQADPFXGHD-LSDHHAIUSA-N

>  <Smiles>
CC(C)(CCC[C@@]1(C)CC2)C1=CC[C@@]2(C)O

>  <Molecular Formula>
C15H26O

$$$$
5-hydroxypentanal
Actelion Java MolfileCreator 2.0

  0  0  0  0  0  0              0 V3000
M  V30 BEGIN CTAB
M  V30 COUNTS 7 6 0 0 0
M  V30 BEGIN ATOM
M  V30 1 O 0.0 0.0 0.0 0
M  V30 2 C 1.2552 -0.7172 0.0 0
M  V30 3 C 2.5105 0.1992 0.0 0
M  V30 4 C 3.7657 -0.518 0.0 0
M  V30 5 C 5.021 0.3984 0.0 0
M  V30 6 C 6.2762 -0.3187 0.0 0
M  V30 7 O 7.5315 0.5977 0.0 0
M  V30 END ATOM
M  V30 BEGIN BOND
M  V30 1 2 1 2
M  V30 2 1 2 3
M  V30 3 1 3 4
M  V30 4 1 4 5
M  V30 5 1 5 6
M  V30 6 1 6 7
M  V30 END BOND
M  V30 END CTAB
M  END
>  <Molecule Name>
5-hydroxypentanal

>  <Molecule Name 2>
5-hydroxypentanal

>  <Database>
Essential Oil Database

>  <InChI>
InChI=1S/C5H10O2/c6-4-2-1-3-5-7/h4,7H,1-3,5H2

>  <InChI-Key>
CNRGMQRNYAIBTN-UHFFFAOYSA-N

>  <Smiles>
OCCCCC=O

>  <Molecular Formula>
C5H10O2

$$$$
camphenilone
Actelion Java MolfileCreator 2.0

  0  0  0  0  0  0              0 V3000
M  V30 BEGIN CTAB
M  V30 COUNTS 10 11 0 0 0
M  V30 BEGIN ATOM
M  V30 1 O 0.0 0.0 0.0 0
M  V30 2 C 1.2222 -0.6965 0.0 0
M  V30 3 C 1.0908 -2.1422 0.0 0
M  V30 4 C 2.4445 0.1577 0.0 0
M  V30 5 C 2.3131 -2.8388 0.0 0
M  V30 6 C 0.3942 -3.4828 0.0 0
M  V30 7 C -0.5914 -1.7217 0.0 0
M  V30 8 C 1.8925 -1.2879 0.0 0
M  V30 9 C 3.6668 -0.5388 0.0 0
M  V30 10 C 3.5354 -1.9714 0.0 0
M  V30 END ATOM
M  V30 BEGIN BOND
M  V30 1 2 1 2
M  V30 2 1 2 3
M  V30 3 1 2 4
M  V30 4 1 3 5
M  V30 5 1 3 6
M  V30 6 1 3 7
M  V30 7 1 4 8
M  V30 8 1 4 9
M  V30 9 1 5 10
M  V30 10 1 5 8
M  V30 11 1 9 10
M  V30 END BOND
M  V30 END CTAB
M  END
>  <Molecule Name>
camphenilone

>  <Molecule Name 2>
camphenilone

>  <Database>
Essential Oil Database

>  <InChI>
InChI=1S/C9H14O/c1-9(2)7-4-3-6(5-7)8(9)10/h6-7H,3-5H2,1-2H3

>  <InChI-Key>
ZYPYEBYNXWUCEA-UHFFFAOYSA-N

>  <Smiles>
CC(C)(C1CC2CC1)C2=O

>  <Molecular Formula>
C9H14O

$$$$
7-octen-4-ol
Actelion Java MolfileCreator 2.0

  0  0  0  0  0  0              0 V3000
M  V30 BEGIN CTAB
M  V30 COUNTS 9 8 0 0 0
M  V30 BEGIN ATOM
M  V30 1 O 0.0 0.0 0.0 0
M  V30 2 C -0.1121 -1.4023 0.0 0 CFG=2
M  V30 3 C 1.0994 -2.0081 0.0 0
M  V30 4 C -1.5481 -2.0081 0.0 0
M  V30 5 C 2.311 -1.0881 0.0 0
M  V30 6 C -2.9841 -1.0881 0.0 0
M  V30 7 C 3.5226 -1.7164 0.0 0
M  V30 8 C -4.4201 -1.7164 0.0 0
M  V30 9 C 4.7342 -0.7965 0.0 0
M  V30 END ATOM
M  V30 BEGIN BOND
M  V30 1 1 2 1 CFG=3
M  V30 2 1 2 3
M  V30 3 1 2 4
M  V30 4 1 3 5
M  V30 5 1 4 6
M  V30 6 1 5 7
M  V30 7 1 6 8
M  V30 8 2 7 9
M  V30 END BOND
M  V30 BEGIN COLLECTION
M  V30 MDLV30/STERAC1 ATOMS=(1 2)
M  V30 END COLLECTION
M  V30 END CTAB
M  END
>  <Molecule Name>
7-octen-4-ol

>  <Molecule Name 2>
7-octen-4-ol

>  <Database>
Essential Oil Database

>  <InChI>
InChI=1S/C8H16O/c1-3-5-7-8(9)6-4-2/h3,8-9H,1,4-7H2,2H3/t8-/m0/s1

>  <InChI-Key>
MJWKMORBWQZWOT-QMMMGPOBSA-N

>  <Smiles>
CCCC(CCC=C)O

>  <Molecular Formula>
C8H16O

$$$$
geranyl isobutyrate
Actelion Java MolfileCreator 2.0

  0  0  0  0  0  0              0 V3000
M  V30 BEGIN CTAB
M  V30 COUNTS 16 15 0 0 0
M  V30 BEGIN ATOM
M  V30 1 O 0.0 0.0 0.0 0
M  V30 2 C -0.1319 1.6884 0.0 0
M  V30 3 O 1.0684 2.5458 0.0 0
M  V30 4 C -1.596 2.5458 0.0 0
M  V30 5 C 2.2688 1.8467 0.0 0
M  V30 6 C -3.0602 1.8467 0.0 0
M  V30 7 C -1.728 4.2342 0.0 0
M  V30 8 C 3.4691 2.7041 0.0 0
M  V30 9 C 4.6695 2.005 0.0 0
M  V30 10 C 5.8699 2.8624 0.0 0
M  V30 11 C 4.5376 0.5803 0.0 0
M  V30 12 C 7.0703 2.1633 0.0 0
M  V30 13 C 8.2706 3.0207 0.0 0
M  V30 14 C 9.471 2.3215 0.0 0
M  V30 15 C 10.6714 3.1789 0.0 0
M  V30 16 C 9.3391 0.8969 0.0 0
M  V30 END ATOM
M  V30 BEGIN BOND
M  V30 1 2 1 2
M  V30 2 1 2 3
M  V30 3 1 2 4
M  V30 4 1 3 5
M  V30 5 1 4 6
M  V30 6 1 4 7
M  V30 7 1 5 8
M  V30 8 2 8 9
M  V30 9 1 9 10
M  V30 10 1 9 11
M  V30 11 1 10 12
M  V30 12 1 12 13
M  V30 13 2 13 14
M  V30 14 1 14 15
M  V30 15 1 14 16
M  V30 END BOND
M  V30 END CTAB
M  END
>  <Molecule Name>
geranyl isobutyrate

>  <Molecule Name 2>
geranyl isobutyrate

>  <Database>
Essential Oil Database

>  <InChI>
InChI=1S/C14H24O2/c1-11(2)7-6-8-13(5)9-10-16-14(15)12(3)4/h7,9,12H,6,8,10H2,1-5H3/b13-9+

>  <InChI-Key>
OGJYXQFXLSCKTP-UKTHLTGXSA-N

>  <Smiles>
CC(C)C(OC/C=C(\C)/CCC=C(C)C)=O

>  <Molecular Formula>
C14H24O2

$$$$
patchouli alcohol
Actelion Java MolfileCreator 2.0

  0  0  0  0  0  0              0 V3000
M  V30 BEGIN CTAB
M  V30 COUNTS 16 18 0 0 0
M  V30 BEGIN ATOM
M  V30 1 O 0.0 0.0 0.0 0
M  V30 2 C -1.1832 -0.9092 0.0 0 CFG=2
M  V30 3 C -1.644 -1.5569 0.0 0 CFG=1
M  V30 4 C -0.2864 -2.4785 0.0 0
M  V30 5 C -2.628 0.0124 0.0 0
M  V30 6 C -2.2917 -2.7152 0.0 0 CFG=1
M  V30 7 C -0.6725 0.0249 0.0 0
M  V30 8 C -3.0889 -0.8967 0.0 0
M  V30 9 C 0.6103 -2.2668 0.0 0 CFG=2
M  V30 10 C -0.2241 -0.9341 0.0 0
M  V30 11 C 0.6601 -1.3327 0.0 0
M  V30 12 C -4.023 -0.5978 0.0 0
M  V30 13 C -3.8362 -1.9928 0.0 0 CFG=1
M  V30 14 C -0.8843 -3.176 0.0 0
M  V30 15 C 0.5853 -0.4732 0.0 0
M  V30 16 C -5.1315 -2.6529 0.0 0
M  V30 END ATOM
M  V30 BEGIN BOND
M  V30 1 1 2 1 CFG=1
M  V30 2 1 3 2 CFG=3
M  V30 3 1 2 4
M  V30 4 1 2 5
M  V30 5 1 3 6
M  V30 6 1 3 7
M  V30 7 1 3 8
M  V30 8 1 4 9
M  V30 9 1 4 10
M  V30 10 1 4 11
M  V30 11 1 5 12
M  V30 12 1 6 13
M  V30 13 1 6 14 CFG=3
M  V30 14 1 7 15
M  V30 15 1 13 16 CFG=3
M  V30 16 1 9 14 CFG=1
M  V30 17 1 9 15
M  V30 18 1 12 13
M  V30 END BOND
M  V30 BEGIN COLLECTION
M  V30 MDLV30/STERAC1 ATOMS=(5 2 3 6 9 13)
M  V30 END COLLECTION
M  V30 END CTAB
M  END
>  <Molecule Name>
patchouli alcohol

>  <Molecule Name 2>
patchouli alcohol

>  <Database>
Essential Oil Database

>  <InChI>
InChI=1S/C15H26O/c1-10-5-8-15(16)13(2,3)11-6-7-14(15,4)12(10)9-11/h10-12,16H,5-9H2,1-4H3/t10-,11+,12-,14-,15+/m1/s1

>  <InChI-Key>
GGHMUJBZYLPWFD-OGMFBOKVSA-N

>  <Smiles>
C[C@H](CC1)[C@@H](C[C@H](CC2)C3(C)C)[C@]2(C)[C@]13O

>  <Molecular Formula>
C15H26O

$$$$
(e)-3,7-dimethyl-2,7-octadien-1,6-diol
Actelion Java MolfileCreator 2.0

  0  0  0  0  0  0              0 V3000
M  V30 BEGIN CTAB
M  V30 COUNTS 12 11 0 0 0
M  V30 BEGIN ATOM
M  V30 1 O 0.0 0.0 0.0 0
M  V30 2 C -0.1118 -1.3978 0.0 0 CFG=2
M  V30 3 C 1.0959 -1.9905 0.0 0
M  V30 4 C -1.5432 -1.9905 0.0 0
M  V30 5 C 2.3036 -1.0847 0.0 0
M  V30 6 C 0.984 -3.3884 0.0 0
M  V30 7 C -2.9746 -1.0847 0.0 0
M  V30 8 C -4.406 -1.6774 0.0 0
M  V30 9 C -5.8374 -0.7716 0.0 0
M  V30 10 C -4.5178 -3.0752 0.0 0
M  V30 11 C -7.2688 -1.3643 0.0 0
M  V30 12 O -7.3807 -2.7621 0.0 0
M  V30 END ATOM
M  V30 BEGIN BOND
M  V30 1 1 2 1 CFG=3
M  V30 2 1 2 3
M  V30 3 1 2 4
M  V30 4 2 3 5
M  V30 5 1 3 6
M  V30 6 1 4 7
M  V30 7 1 7 8
M  V30 8 2 8 9
M  V30 9 1 8 10
M  V30 10 1 9 11
M  V30 11 1 11 12
M  V30 END BOND
M  V30 BEGIN COLLECTION
M  V30 MDLV30/STERAC1 ATOMS=(1 2)
M  V30 END COLLECTION
M  V30 END CTAB
M  END
>  <Molecule Name>
(e)-3,7-dimethyl-2,7-octadien-1,6-diol

>  <Molecule Name 2>
(e)-3,7-dimethyl-2,7-octadien-1,6-diol

>  <Database>
Essential Oil Database

>  <InChI>
InChI=1S/C10H18O2/c1-8(2)10(12)5-4-9(3)6-7-11/h6,10-12H,1,4-5,7H2,2-3H3/b9-6+/t10-/m0/s1

>  <InChI-Key>
FRUCUVNBDSNCEC-ZKXNXJMVSA-N

>  <Smiles>
C/C(\CCC(C(C)=C)O)=C\CO

>  <Molecular Formula>
C10H18O2

$$$$
neryl formate
Actelion Java MolfileCreator 2.0

  0  0  0  0  0  0              0 V3000
M  V30 BEGIN CTAB
M  V30 COUNTS 13 12 0 0 0
M  V30 BEGIN ATOM
M  V30 1 O 0.0 0.0 0.0 0
M  V30 2 C -1.5403 0.1203 0.0 0
M  V30 3 O -2.3346 1.4561 0.0 0
M  V30 4 C -3.8749 1.5764 0.0 0
M  V30 5 C -4.6692 2.9122 0.0 0
M  V30 6 C -6.2095 3.0325 0.0 0
M  V30 7 C -7.0038 1.9374 0.0 0
M  V30 8 C -7.0038 4.3683 0.0 0
M  V30 9 C -8.5442 2.0578 0.0 0
M  V30 10 C -9.3384 0.9627 0.0 0
M  V30 11 C -10.8788 1.083 0.0 0
M  V30 12 C -11.673 -0.012 0.0 0
M  V30 13 C -11.673 2.4188 0.0 0
M  V30 END ATOM
M  V30 BEGIN BOND
M  V30 1 2 1 2
M  V30 2 1 2 3
M  V30 3 1 3 4
M  V30 4 1 4 5
M  V30 5 2 5 6
M  V30 6 1 6 7
M  V30 7 1 6 8
M  V30 8 1 7 9
M  V30 9 1 9 10
M  V30 10 2 10 11
M  V30 11 1 11 12
M  V30 12 1 11 13
M  V30 END BOND
M  V30 END CTAB
M  END
>  <Molecule Name>
neryl formate

>  <Molecule Name 2>
neryl formate

>  <Database>
Essential Oil Database

>  <InChI>
InChI=1S/C11H18O2/c1-10(2)5-4-6-11(3)7-8-13-9-12/h5,7,9H,4,6,8H2,1-3H3/b11-7-

>  <InChI-Key>
FQMZVFJYMPNUCT-XFFZJAGNSA-N

>  <Smiles>
CC(C)=CCC/C(\C)=C\COC=O

>  <Molecular Formula>
C11H18O2

$$$$
(z)-3,7-dimethyl-2,7-octadien-1,6-diol
Actelion Java MolfileCreator 2.0

  0  0  0  0  0  0              0 V3000
M  V30 BEGIN CTAB
M  V30 COUNTS 12 11 0 0 0
M  V30 BEGIN ATOM
M  V30 1 O 0.0 0.0 0.0 0
M  V30 2 C -0.1265 -1.3667 0.0 0 CFG=2
M  V30 3 C 1.025 -2.0374 0.0 0
M  V30 4 C -1.5312 -2.0374 0.0 0
M  V30 5 C 2.1766 -1.2148 0.0 0
M  V30 6 C 0.8985 -3.4041 0.0 0
M  V30 7 C -2.9359 -1.2148 0.0 0
M  V30 8 C -4.3406 -1.8855 0.0 0
M  V30 9 C -5.7453 -1.0503 0.0 0
M  V30 10 C -4.4672 -3.2523 0.0 0
M  V30 11 C -5.8719 0.5694 0.0 0
M  V30 12 O -7.2766 1.4047 0.0 0
M  V30 END ATOM
M  V30 BEGIN BOND
M  V30 1 1 2 1 CFG=3
M  V30 2 1 2 3
M  V30 3 1 2 4
M  V30 4 2 3 5
M  V30 5 1 3 6
M  V30 6 1 4 7
M  V30 7 1 7 8
M  V30 8 2 8 9
M  V30 9 1 8 10
M  V30 10 1 9 11
M  V30 11 1 11 12
M  V30 END BOND
M  V30 BEGIN COLLECTION
M  V30 MDLV30/STERAC1 ATOMS=(1 2)
M  V30 END COLLECTION
M  V30 END CTAB
M  END
>  <Molecule Name>
(z)-3,7-dimethyl-2,7-octadien-1,6-diol

>  <Molecule Name 2>
(z)-3,7-dimethyl-2,7-octadien-1,6-diol

>  <Database>
Essential Oil Database

>  <InChI>
InChI=1S/C10H18O2/c1-8(2)10(12)5-4-9(3)6-7-11/h6,10-12H,1,4-5,7H2,2-3H3/b9-6-/t10-/m0/s1

>  <InChI-Key>
FRUCUVNBDSNCEC-MBACFSSFSA-N

>  <Smiles>
C/C(\CCC(C(C)=C)O)=C/CO

>  <Molecular Formula>
C10H18O2

$$$$
13-epi-manool
Actelion Java MolfileCreator 2.0

  0  0  0  0  0  0              0 V3000
M  V30 BEGIN CTAB
M  V30 COUNTS 21 22 0 0 0
M  V30 BEGIN ATOM
M  V30 1 O 0.0 0.0 0.0 0
M  V30 2 C -1.6032 0.1252 0.0 0 CFG=1
M  V30 3 C -1.7284 -1.2274 0.0 0
M  V30 4 C -1.7284 1.7284 0.0 0
M  V30 5 C -3.2064 0.2505 0.0 0
M  V30 6 C -0.5886 -1.8913 0.0 0
M  V30 7 C -3.1188 2.5426 0.0 0
M  V30 8 C -3.244 4.1458 0.0 0 CFG=2
M  V30 9 C -4.6343 4.96 0.0 0
M  V30 10 C -2.1042 4.96 0.0 0 CFG=1
M  V30 11 C -6.0246 4.2836 0.0 0
M  V30 12 C -4.7596 6.5632 0.0 0
M  V30 13 C -2.2295 6.5632 0.0 0 CFG=2
M  V30 14 C -0.9644 4.2836 0.0 0
M  V30 15 C -2.2295 3.6072 0.0 0
M  V30 16 C -3.6198 7.3774 0.0 0
M  V30 17 C -1.0897 7.3774 0.0 0
M  V30 18 C 0.1753 5.0977 0.0 0
M  V30 19 C 0.0501 6.7135 0.0 0
M  V30 20 C -2.1293 8.6048 0.0 0
M  V30 21 C -0.3006 8.6048 0.0 0
M  V30 END ATOM
M  V30 BEGIN BOND
M  V30 1 1 1 2
M  V30 2 1 2 3
M  V30 3 1 2 4
M  V30 4 1 2 5 CFG=3
M  V30 5 2 3 6
M  V30 6 1 4 7
M  V30 7 1 8 7 CFG=3
M  V30 8 1 8 9
M  V30 9 1 8 10
M  V30 10 2 9 11
M  V30 11 1 9 12
M  V30 12 1 10 13
M  V30 13 1 10 14
M  V30 14 1 10 15 CFG=3
M  V30 15 1 12 16
M  V30 16 1 13 17
M  V30 17 1 14 18
M  V30 18 1 17 19
M  V30 19 1 17 20
M  V30 20 1 17 21
M  V30 21 1 13 16 CFG=3
M  V30 22 1 18 19
M  V30 END BOND
M  V30 BEGIN COLLECTION
M  V30 MDLV30/STERAC1 ATOMS=(4 2 8 10 13)
M  V30 END COLLECTION
M  V30 END CTAB
M  END
>  <Molecule Name>
13-epi-manool

>  <Molecule Name 2>
13-epi-manool

>  <Database>
Essential Oil Database

>  <InChI>
InChI=1S/C20H34O/c1-7-19(5,21)14-11-16-15(2)9-10-17-18(3,4)12-8-13-20(16,17)6/h7,16-17,21H,1-2,8-14H2,3-6H3/t16-,17-,19+,20+/m1/s1

>  <InChI-Key>
CECREIRZLPLYDM-JYBIWHBTSA-N

>  <Smiles>
C[C@@](CC[C@@H]([C@@]1(C)[C@H](CC2)C(C)(C)CCC1)C2=C)(C=C)O

>  <Molecular Formula>
C20H34O

$$$$
sclareol
Actelion Java MolfileCreator 2.0

  0  0  0  0  0  0              0 V3000
M  V30 BEGIN CTAB
M  V30 COUNTS 22 23 0 0 0
M  V30 BEGIN ATOM
M  V30 1 O 0.0 0.0 0.0 0
M  V30 2 C 1.4049 -0.159 0.0 0 CFG=2
M  V30 3 C 2.6111 -0.8748 0.0 0 CFG=2
M  V30 4 C 1.2724 1.5375 0.0 0
M  V30 5 C 0.7024 -1.4845 0.0 0
M  V30 6 C 3.8173 -0.0132 0.0 0 CFG=1
M  V30 7 C 2.4786 -2.3063 0.0 0
M  V30 8 C 2.4786 2.399 0.0 0
M  V30 9 C 3.6848 1.6833 0.0 0 CFG=2
M  V30 10 C 5.0235 -0.729 0.0 0
M  V30 11 C 3.6848 -1.4447 0.0 0
M  V30 12 C 3.6848 -3.022 0.0 0
M  V30 13 C 4.8909 2.5449 0.0 0
M  V30 14 C 6.2297 0.1325 0.0 0
M  V30 15 C 3.5522 -4.4535 0.0 0 CFG=2
M  V30 16 C 6.0971 1.8424 0.0 0
M  V30 17 C 3.7908 3.8438 0.0 0
M  V30 18 C 5.726 3.8438 0.0 0
M  V30 19 O 4.9837 -4.321 0.0 0
M  V30 20 C 3.4197 -5.885 0.0 0
M  V30 21 C 1.8556 -4.321 0.0 0
M  V30 22 C 4.6258 -6.5875 0.0 0
M  V30 END ATOM
M  V30 BEGIN BOND
M  V30 1 1 2 1 CFG=1
M  V30 2 1 2 3
M  V30 3 1 2 4
M  V30 4 1 2 5
M  V30 5 1 3 6
M  V30 6 1 3 7 CFG=3
M  V30 7 1 4 8
M  V30 8 1 6 9
M  V30 9 1 6 10
M  V30 10 1 6 11 CFG=3
M  V30 11 1 7 12
M  V30 12 1 9 13
M  V30 13 1 10 14
M  V30 14 1 15 12 CFG=3
M  V30 15 1 13 16
M  V30 16 1 13 17
M  V30 17 1 13 18
M  V30 18 1 15 19
M  V30 19 1 15 20
M  V30 20 1 15 21
M  V30 21 2 20 22
M  V30 22 1 9 8 CFG=3
M  V30 23 1 14 16
M  V30 END BOND
M  V30 BEGIN COLLECTION
M  V30 MDLV30/STERAC1 ATOMS=(5 2 3 6 9 15)
M  V30 END COLLECTION
M  V30 END CTAB
M  END
>  <Molecule Name>
sclareol

>  <Molecule Name 2>
sclareol

>  <Database>
Essential Oil Database

>  <InChI>
InChI=1S/C20H36O2/c1-7-18(4,21)13-9-16-19(5)12-8-11-17(2,3)15(19)10-14-20(16,6)22/h7,15-16,21-22H,1,8-14H2,2-6H3/t15-,16+,18-,19-,20+/m1/s1

>  <InChI-Key>
XVULBTBTFGYVRC-LHDHZVESSA-N

>  <Smiles>
C[C@](CC[C@@H]([C@@]1(C)[C@H](CC2)C(C)(C)CCC1)[C@@]2(C)O)(C=C)O

>  <Molecular Formula>
C20H36O2

$$$$
carvone oxide
Actelion Java MolfileCreator 2.0

  0  0  0  0  0  0              0 V3000
M  V30 BEGIN CTAB
M  V30 COUNTS 12 13 0 0 0
M  V30 BEGIN ATOM
M  V30 1 O 0.0 0.0 0.0 0
M  V30 2 C -0.1144 -1.431 0.0 0
M  V30 3 C -1.5798 -2.0492 0.0 0 CFG=1
M  V30 4 C 1.1219 -2.0492 0.0 0
M  V30 5 O -3.0452 -2.6903 0.0 0
M  V30 6 C -1.6943 -3.4803 0.0 0 CFG=2
M  V30 7 C -2.5071 -0.5838 0.0 0
M  V30 8 C 1.0074 -3.4803 0.0 0 CFG=2
M  V30 9 C -0.4579 -4.087 0.0 0
M  V30 10 C 2.2438 -4.087 0.0 0
M  V30 11 C 2.1293 -5.5181 0.0 0
M  V30 12 C 3.4803 -3.1597 0.0 0
M  V30 END ATOM
M  V30 BEGIN BOND
M  V30 1 2 1 2
M  V30 2 1 2 3
M  V30 3 1 2 4
M  V30 4 1 3 5 CFG=3
M  V30 5 1 3 6
M  V30 6 1 3 7
M  V30 7 1 4 8
M  V30 8 1 6 9
M  V30 9 1 8 10 CFG=1
M  V30 10 2 10 11
M  V30 11 1 10 12
M  V30 12 1 6 5 CFG=1
M  V30 13 1 8 9
M  V30 END BOND
M  V30 BEGIN COLLECTION
M  V30 MDLV30/STERAC1 ATOMS=(3 3 6 8)
M  V30 END COLLECTION
M  V30 END CTAB
M  END
>  <Molecule Name>
carvone oxide

>  <Molecule Name 2>
carvone oxide

>  <Database>
Essential Oil Database

>  <InChI>
InChI=1S/C10H14O2/c1-6(2)7-4-8(11)10(3)9(5-7)12-10/h7,9H,1,4-5H2,2-3H3/t7-,9-,10-/m1/s1

>  <InChI-Key>
YGMNGQDLUQECTO-SZEHBUNVSA-N

>  <Smiles>
C[C@]1(C(C2)=O)O[C@@H]1C[C@@H]2C(C)=C

>  <Molecular Formula>
C10H14O2

$$$$
2-nitroethanol
Actelion Java MolfileCreator 2.0

  0  0  0  0  0  0              0 V3000
M  V30 BEGIN CTAB
M  V30 COUNTS 6 5 0 0 0
M  V30 BEGIN ATOM
M  V30 1 O 0.0 0.0 0.0 0
M  V30 2 N -0.7717 1.3179 0.0 0 CHG=1
M  V30 3 O -2.2915 1.4366 0.0 0 CHG=-1
M  V30 4 C -0.1424 2.6359 0.0 0
M  V30 5 C -0.9142 3.9538 0.0 0
M  V30 6 O -0.2849 5.2718 0.0 0
M  V30 END ATOM
M  V30 BEGIN BOND
M  V30 1 2 1 2
M  V30 2 1 2 3
M  V30 3 1 2 4
M  V30 4 1 4 5
M  V30 5 1 5 6
M  V30 END BOND
M  V30 END CTAB
M  END
>  <Molecule Name>
2-nitroethanol

>  <Molecule Name 2>
2-nitroethanol

>  <Database>
Essential Oil Database

>  <InChI>
InChI=1S/C2H5NO3/c4-2-1-3(5)6/h4H,1-2H2

>  <InChI-Key>
KIPMDPDAFINLIV-UHFFFAOYSA-N

>  <Smiles>
[O-][N+](CCO)=O

>  <Molecular Formula>
C2H5NO3

$$$$
3-methyl-2(5h)-furanone
Actelion Java MolfileCreator 2.0

  0  0  0  0  0  0              0 V3000
M  V30 BEGIN CTAB
M  V30 COUNTS 7 7 0 0 0
M  V30 BEGIN ATOM
M  V30 1 O 0.0 0.0 0.0 0
M  V30 2 C 1.3762 -0.3912 0.0 0
M  V30 3 O 1.7675 -1.7675 0.0 0
M  V30 4 C 2.5096 0.6341 0.0 0
M  V30 5 C 3.2248 -1.6326 0.0 0
M  V30 6 C 3.643 -0.1619 0.0 0
M  V30 7 C 2.3747 2.3612 0.0 0
M  V30 END ATOM
M  V30 BEGIN BOND
M  V30 1 2 1 2
M  V30 2 1 2 3
M  V30 3 1 2 4
M  V30 4 1 3 5
M  V30 5 2 4 6
M  V30 6 1 4 7
M  V30 7 1 5 6
M  V30 END BOND
M  V30 END CTAB
M  END
>  <Molecule Name>
3-methyl-2(5h)-furanone

>  <Molecule Name 2>
3-methyl-2(5h)-furanone

>  <Database>
Essential Oil Database

>  <InChI>
InChI=1S/C5H6O2/c1-4-2-3-7-5(4)6/h2H,3H2,1H3

>  <InChI-Key>
VGHBEMPMIVEGJP-UHFFFAOYSA-N

>  <Smiles>
CC1=CCOC1=O

>  <Molecular Formula>
C5H6O2

$$$$
3-pentene-2-ol
Actelion Java MolfileCreator 2.0

  0  0  0  0  0  0              0 V3000
M  V30 BEGIN CTAB
M  V30 COUNTS 6 5 0 0 0
M  V30 BEGIN ATOM
M  V30 1 O 0.0 0.0 0.0 0
M  V30 2 C 0.7025 -1.2062 0.0 0 CFG=2
M  V30 3 C -0.159 -2.4124 0.0 0
M  V30 4 C 2.134 -1.0736 0.0 0
M  V30 5 C -1.8557 -2.2798 0.0 0
M  V30 6 C -2.7172 -3.486 0.0 0
M  V30 END ATOM
M  V30 BEGIN BOND
M  V30 1 1 2 1 CFG=1
M  V30 2 1 2 3
M  V30 3 1 2 4
M  V30 4 2 3 5
M  V30 5 1 5 6
M  V30 END BOND
M  V30 BEGIN COLLECTION
M  V30 MDLV30/STERAC1 ATOMS=(1 2)
M  V30 END COLLECTION
M  V30 END CTAB
M  END
>  <Molecule Name>
3-pentene-2-ol

>  <Molecule Name 2>
3-pentene-2-ol

>  <Database>
Essential Oil Database

>  <InChI>
InChI=1S/C5H10O/c1-3-4-5(2)6/h3-6H,1-2H3/b4-3+/t5-/m0/s1

>  <InChI-Key>
GJYMQFMQRRNLCY-BHYDHMSTSA-N

>  <Smiles>
CC(/C=C/C)O

>  <Molecular Formula>
C5H10O

$$$$
cyclohexanone
Actelion Java MolfileCreator 2.0

  0  0  0  0  0  0              0 V3000
M  V30 BEGIN CTAB
M  V30 COUNTS 7 7 0 0 0
M  V30 BEGIN ATOM
M  V30 1 O 0.0 0.0 0.0 0
M  V30 2 C -0.1174 -1.4683 0.0 0
M  V30 3 C 1.1511 -2.0908 0.0 0
M  V30 4 C -1.621 -2.0908 0.0 0
M  V30 5 C 1.0336 -3.5591 0.0 0
M  V30 6 C -1.7384 -3.5591 0.0 0
M  V30 7 C -0.4698 -4.1817 0.0 0
M  V30 END ATOM
M  V30 BEGIN BOND
M  V30 1 2 1 2
M  V30 2 1 2 3
M  V30 3 1 2 4
M  V30 4 1 3 5
M  V30 5 1 4 6
M  V30 6 1 5 7
M  V30 7 1 6 7
M  V30 END BOND
M  V30 END CTAB
M  END
>  <Molecule Name>
cyclohexanone

>  <Molecule Name 2>
cyclohexanone

>  <Database>
Essential Oil Database

>  <InChI>
InChI=1S/C6H10O/c7-6-4-2-1-3-5-6/h1-5H2

>  <InChI-Key>
JHIVVAPYMSGYDF-UHFFFAOYSA-N

>  <Smiles>
O=C1CCCCC1

>  <Molecular Formula>
C6H10O

$$$$
dihydro-3-methyl-2(3h)-furanone
Actelion Java MolfileCreator 2.0

  0  0  0  0  0  0              0 V3000
M  V30 BEGIN CTAB
M  V30 COUNTS 7 7 0 0 0
M  V30 BEGIN ATOM
M  V30 1 O 0.0 0.0 0.0 0
M  V30 2 C 1.3762 -0.3912 0.0 0
M  V30 3 O 1.7675 -1.7675 0.0 0
M  V30 4 C 2.5096 0.6341 0.0 0 CFG=2
M  V30 5 C 3.2248 -1.6326 0.0 0
M  V30 6 C 3.643 -0.1619 0.0 0
M  V30 7 C 2.3747 2.3612 0.0 0
M  V30 END ATOM
M  V30 BEGIN BOND
M  V30 1 2 1 2
M  V30 2 1 2 3
M  V30 3 1 2 4
M  V30 4 1 3 5
M  V30 5 1 4 6
M  V30 6 1 4 7 CFG=1
M  V30 7 1 5 6
M  V30 END BOND
M  V30 BEGIN COLLECTION
M  V30 MDLV30/STERAC1 ATOMS=(1 4)
M  V30 END COLLECTION
M  V30 END CTAB
M  END
>  <Molecule Name>
dihydro-3-methyl-2(3h)-furanone

>  <Molecule Name 2>
dihydro-3-methyl-2(3h)-furanone

>  <Database>
Essential Oil Database

>  <InChI>
InChI=1S/C5H8O2/c1-4-2-3-7-5(4)6/h4H,2-3H2,1H3/t4-/m0/s1

>  <InChI-Key>
QGLBZNZGBLRJGS-BYPYZUCNSA-N

>  <Smiles>
CC(CCO1)C1=O

>  <Molecular Formula>
C5H8O2

$$$$
3-methyl-2-butene-1-thiol
Actelion Java MolfileCreator 2.0

  0  0  0  0  0  0              0 V3000
M  V30 BEGIN CTAB
M  V30 COUNTS 6 5 0 0 0
M  V30 BEGIN ATOM
M  V30 1 S 0.0 0.0 0.0 0
M  V30 2 C 0.679 -1.1658 0.0 0
M  V30 3 C -0.1409 -2.3316 0.0 0
M  V30 4 C -1.7807 -2.2035 0.0 0
M  V30 5 C -2.6135 -3.3694 0.0 0
M  V30 6 C -2.6135 -0.7815 0.0 0
M  V30 END ATOM
M  V30 BEGIN BOND
M  V30 1 1 1 2
M  V30 2 1 2 3
M  V30 3 2 3 4
M  V30 4 1 4 5
M  V30 5 1 4 6
M  V30 END BOND
M  V30 END CTAB
M  END
>  <Molecule Name>
3-methyl-2-butene-1-thiol

>  <Molecule Name 2>
3-methyl-2-butene-1-thiol

>  <Database>
Essential Oil Database

>  <InChI>
InChI=1S/C5H10S/c1-5(2)3-4-6/h3,6H,4H2,1-2H3

>  <InChI-Key>
GYDPOKGOQFTYGW-UHFFFAOYSA-N

>  <Smiles>
CC(C)=CCS

>  <Molecular Formula>
C5H10S

$$$$
trans-pinan-2-ol
Actelion Java MolfileCreator 2.0

  0  0  0  0  0  0              0 V3000
M  V30 BEGIN CTAB
M  V30 COUNTS 11 12 0 0 0
M  V30 BEGIN ATOM
M  V30 1 O 0.0 0.0 0.0 0
M  V30 2 C -1.5726 -0.4289 0.0 0
M  V30 3 C -3.2363 -0.2859 0.0 0
M  V30 4 C -0.8838 -1.6116 0.0 0
M  V30 5 C -1.9885 1.2087 0.0 0
M  V30 6 C -4.0811 -1.4686 0.0 0
M  V30 7 C -3.5092 -1.5336 0.0 0
M  V30 8 C -1.7286 -2.7944 0.0 0
M  V30 9 C -3.3922 -2.6514 0.0 0
M  V30 10 C -5.5498 -0.6238 0.0 0
M  V30 11 C -5.5498 -2.1055 0.0 0
M  V30 END ATOM
M  V30 BEGIN BOND
M  V30 1 1 1 2
M  V30 2 1 2 3
M  V30 3 1 2 4
M  V30 4 1 2 5
M  V30 5 1 3 6
M  V30 6 1 3 7
M  V30 7 1 4 8
M  V30 8 1 6 9
M  V30 9 1 6 10
M  V30 10 1 6 11
M  V30 11 1 7 9
M  V30 12 1 8 9
M  V30 END BOND
M  V30 END CTAB
M  END
>  <Molecule Name>
trans-pinan-2-ol

>  <Molecule Name 2>
trans-pinan-2-ol

>  <Database>
Essential Oil Database

>  <InChI>
InChI=1S/C10H18O/c1-9(2)7-4-5-10(3,11)8(9)6-7/h7-8,11H,4-6H2,1-3H3

>  <InChI-Key>
YYWZKGZIIKPPJZ-UHFFFAOYSA-N

>  <Smiles>
CC(C)(C(C1)CC2)C1C2(C)O

>  <Molecular Formula>
C10H18O

$$$$
(z)-6-octadecenoic acid
Actelion Java MolfileCreator 2.0

  0  0  0  0  0  0              0 V3000
M  V30 BEGIN CTAB
M  V30 COUNTS 20 19 0 0 0
M  V30 BEGIN ATOM
M  V30 1 O 0.0 0.0 0.0 0
M  V30 2 C -1.4935 -0.6184 0.0 0
M  V30 3 O -2.987 0.315 0.0 0
M  V30 4 C -1.6101 -2.0769 0.0 0
M  V30 5 C -0.35 -2.6953 0.0 0
M  V30 6 C -0.4667 -4.1538 0.0 0
M  V30 7 C 0.7934 -4.7838 0.0 0
M  V30 8 C 0.6767 -6.2423 0.0 0
M  V30 9 C 1.9368 -6.8724 0.0 0
M  V30 10 C 3.197 -5.9273 0.0 0
M  V30 11 C 4.4571 -6.5807 0.0 0
M  V30 12 C 5.7173 -5.6356 0.0 0
M  V30 13 C 6.9774 -6.2773 0.0 0
M  V30 14 C 8.2376 -5.3322 0.0 0
M  V30 15 C 9.4977 -5.9623 0.0 0
M  V30 16 C 10.7579 -5.0172 0.0 0
M  V30 17 C 12.018 -5.6473 0.0 0
M  V30 18 C 13.2781 -4.7022 0.0 0
M  V30 19 C 14.5383 -5.3322 0.0 0
M  V30 20 C 15.7984 -4.3871 0.0 0
M  V30 END ATOM
M  V30 BEGIN BOND
M  V30 1 2 1 2
M  V30 2 1 2 3
M  V30 3 1 2 4
M  V30 4 1 4 5
M  V30 5 1 5 6
M  V30 6 1 6 7
M  V30 7 1 7 8
M  V30 8 2 8 9
M  V30 9 1 9 10
M  V30 10 1 10 11
M  V30 11 1 11 12
M  V30 12 1 12 13
M  V30 13 1 13 14
M  V30 14 1 14 15
M  V30 15 1 15 16
M  V30 16 1 16 17
M  V30 17 1 17 18
M  V30 18 1 18 19
M  V30 19 1 19 20
M  V30 END BOND
M  V30 END CTAB
M  END
>  <Molecule Name>
(z)-6-octadecenoic acid

>  <Molecule Name 2>
(z)-6-octadecenoic acid

>  <Database>
Essential Oil Database

>  <InChI>
InChI=1S/C18H34O2/c1-2-3-4-5-6-7-8-9-10-11-12-13-14-15-16-17-18(19)20/h12-13H,2-11,14-17H2,1H3,(H,19,20)/b13-12-

>  <InChI-Key>
CNVZJPUDSLNTQU-SEYXRHQNSA-N

>  <Smiles>
CCCCCCCCCCC/C=C\CCCCC(O)=O

>  <Molecular Formula>
C18H34O2

$$$$
2,6,6-trimethyl-2-vinyltetrahydropyran
Actelion Java MolfileCreator 2.0

  0  0  0  0  0  0              0 V3000
M  V30 BEGIN CTAB
M  V30 COUNTS 11 11 0 0 0
M  V30 BEGIN ATOM
M  V30 1 O 0.0 0.0 0.0 0
M  V30 2 C -0.111 -1.3655 0.0 0 CFG=2
M  V30 3 C -1.3988 0.877 0.0 0
M  V30 4 C 1.2545 -1.2989 0.0 0
M  V30 5 C -1.5098 -1.9539 0.0 0
M  V30 6 C 0.5884 -2.5201 0.0 0
M  V30 7 C -2.7976 0.2886 0.0 0
M  V30 8 C -2.2092 2.298 0.0 0
M  V30 9 C -0.8437 2.298 0.0 0
M  V30 10 C 1.9539 0.0777 0.0 0
M  V30 11 C -2.9086 -1.0768 0.0 0
M  V30 END ATOM
M  V30 BEGIN BOND
M  V30 1 1 1 2
M  V30 2 1 1 3
M  V30 3 1 2 4
M  V30 4 1 2 5
M  V30 5 1 2 6 CFG=1
M  V30 6 1 3 7
M  V30 7 1 3 8
M  V30 8 1 3 9
M  V30 9 2 4 10
M  V30 10 1 5 11
M  V30 11 1 7 11
M  V30 END BOND
M  V30 BEGIN COLLECTION
M  V30 MDLV30/STERAC1 ATOMS=(1 2)
M  V30 END COLLECTION
M  V30 END CTAB
M  END
>  <Molecule Name>
2,6,6-trimethyl-2-vinyltetrahydropyran

>  <Molecule Name 2>
2,6,6-trimethyl-2-vinyltetrahydropyran

>  <Database>
Essential Oil Database

>  <InChI>
InChI=1S/C10H18O/c1-5-10(4)8-6-7-9(2,3)11-10/h5H,1,6-8H2,2-4H3/t10-/m1/s1

>  <InChI-Key>
NETOHYFTCONTDT-SNVBAGLBSA-N

>  <Smiles>
CC(C)(CCC1)OC1(C)C=C

>  <Molecular Formula>
C10H18O

$$$$
2-ethyl-4-hydroxy-5-methyl-3(2h)-furanone
Actelion Java MolfileCreator 2.0

  0  0  0  0  0  0              0 V3000
M  V30 BEGIN CTAB
M  V30 COUNTS 10 10 0 0 0
M  V30 BEGIN ATOM
M  V30 1 O 0.0 0.0 0.0 0
M  V30 2 C 0.7426 1.3091 0.0 0
M  V30 3 C 0.1258 2.8448 0.0 0
M  V30 4 C 2.1021 1.435 0.0 0 CFG=1
M  V30 5 O -1.4098 3.4616 0.0 0
M  V30 6 C 1.1832 3.8015 0.0 0
M  V30 7 O 2.4672 2.9707 0.0 0
M  V30 8 C 2.8448 0.3776 0.0 0
M  V30 9 C 1.0573 5.4127 0.0 0
M  V30 10 C 4.1917 0.6671 0.0 0
M  V30 END ATOM
M  V30 BEGIN BOND
M  V30 1 2 1 2
M  V30 2 1 2 3
M  V30 3 1 2 4
M  V30 4 1 3 5
M  V30 5 2 3 6
M  V30 6 1 4 7
M  V30 7 1 4 8 CFG=1
M  V30 8 1 6 9
M  V30 9 1 8 10
M  V30 10 1 6 7
M  V30 END BOND
M  V30 BEGIN COLLECTION
M  V30 MDLV30/STERAC1 ATOMS=(1 4)
M  V30 END COLLECTION
M  V30 END CTAB
M  END
>  <Molecule Name>
2-ethyl-4-hydroxy-5-methyl-3(2h)-furanone

>  <Molecule Name 2>
2-ethyl-4-hydroxy-5-methyl-3(2h)-furanone

>  <Database>
Essential Oil Database

>  <InChI>
InChI=1S/C7H10O3/c1-3-5-7(9)6(8)4(2)10-5/h5,8H,3H2,1-2H3/t5-/m0/s1

>  <InChI-Key>
GWCRPYGYVRXVLI-YFKPBYRVSA-N

>  <Smiles>
CCC(C1=O)OC(C)=C1O

>  <Molecular Formula>
C7H10O3

$$$$
2-methylbutylacetate
Actelion Java MolfileCreator 2.0

  0  0  0  0  0  0              0 V3000
M  V30 BEGIN CTAB
M  V30 COUNTS 9 8 0 0 0
M  V30 BEGIN ATOM
M  V30 1 O 0.0 0.0 0.0 0
M  V30 2 C -0.1286 1.6471 0.0 0
M  V30 3 O -1.557 2.4835 0.0 0 CHG=-1
M  V30 4 C 1.0423 2.4835 0.0 0
M  V30 5 C 2.2133 1.7886 0.0 0
M  V30 6 C 3.3843 2.6251 0.0 0 CFG=2
M  V30 7 C 4.5553 1.9302 0.0 0
M  V30 8 C 3.2556 4.2722 0.0 0
M  V30 9 C 5.7263 2.7666 0.0 0
M  V30 END ATOM
M  V30 BEGIN BOND
M  V30 1 2 1 2
M  V30 2 1 2 3
M  V30 3 1 2 4
M  V30 4 1 4 5
M  V30 5 1 5 6
M  V30 6 1 6 7
M  V30 7 1 6 8 CFG=1
M  V30 8 1 7 9
M  V30 END BOND
M  V30 BEGIN COLLECTION
M  V30 MDLV30/STERAC1 ATOMS=(1 6)
M  V30 END COLLECTION
M  V30 END CTAB
M  END
>  <Molecule Name>
2-methylbutylacetate

>  <Molecule Name 2>
2-methylbutylacetate

>  <Database>
Essential Oil Database

>  <InChI>
InChI=1S/C7H14O2/c1-3-6(2)4-5-7(8)9/h6H,3-5H2,1-2H3,(H,8,9)/p-1/t6-/m0/s1

>  <InChI-Key>
DIVCBWJKVSFZKJ-LURJTMIESA-M

>  <Smiles>
CCC(C)CCC([O-])=O

>  <Molecular Formula>
C7H13O2

$$$$
2-methylthioethanol
Actelion Java MolfileCreator 2.0

  0  0  0  0  0  0              0 V3000
M  V30 BEGIN CTAB
M  V30 COUNTS 5 4 0 0 0
M  V30 BEGIN ATOM
M  V30 1 S 0.0 0.0 0.0 0
M  V30 2 C 0.7106 -1.2201 0.0 0
M  V30 3 C -1.7163 0.134 0.0 0
M  V30 4 C 2.1588 -1.0861 0.0 0
M  V30 5 O 2.8694 -2.3062 0.0 0
M  V30 END ATOM
M  V30 BEGIN BOND
M  V30 1 1 1 2
M  V30 2 1 1 3
M  V30 3 1 2 4
M  V30 4 1 4 5
M  V30 END BOND
M  V30 END CTAB
M  END
>  <Molecule Name>
2-methylthioethanol

>  <Molecule Name 2>
2-methylthioethanol

>  <Database>
Essential Oil Database

>  <InChI>
InChI=1S/C3H8OS/c1-5-3-2-4/h4H,2-3H2,1H3

>  <InChI-Key>
WBBPRCNXBQTYLF-UHFFFAOYSA-N

>  <Smiles>
CSCCO

>  <Molecular Formula>
C3H8OS

$$$$
delta-dodecalactone
Actelion Java MolfileCreator 2.0

  0  0  0  0  0  0              0 V3000
M  V30 BEGIN CTAB
M  V30 COUNTS 14 14 0 0 0
M  V30 BEGIN ATOM
M  V30 1 O 0.0 0.0 0.0 0
M  V30 2 C -0.1199 1.5351 0.0 0
M  V30 3 O -1.4512 2.3147 0.0 0
M  V30 4 C 0.9714 2.3147 0.0 0
M  V30 5 C -1.5711 3.8499 0.0 0 CFG=2
M  V30 6 C 0.8515 3.8499 0.0 0
M  V30 7 C -0.4797 4.6295 0.0 0
M  V30 8 C -2.9024 4.6295 0.0 0
M  V30 9 C -4.2337 3.9818 0.0 0
M  V30 10 C -5.565 4.7614 0.0 0
M  V30 11 C -6.8963 4.1138 0.0 0
M  V30 12 C -8.2276 4.8933 0.0 0
M  V30 13 C -9.5589 4.2457 0.0 0
M  V30 14 C -10.8901 5.0253 0.0 0
M  V30 END ATOM
M  V30 BEGIN BOND
M  V30 1 2 1 2
M  V30 2 1 2 3
M  V30 3 1 2 4
M  V30 4 1 3 5
M  V30 5 1 4 6
M  V30 6 1 5 7
M  V30 7 1 5 8 CFG=1
M  V30 8 1 8 9
M  V30 9 1 9 10
M  V30 10 1 10 11
M  V30 11 1 11 12
M  V30 12 1 12 13
M  V30 13 1 13 14
M  V30 14 1 6 7
M  V30 END BOND
M  V30 BEGIN COLLECTION
M  V30 MDLV30/STERAC1 ATOMS=(1 5)
M  V30 END COLLECTION
M  V30 END CTAB
M  END
>  <Molecule Name>
delta-dodecalactone

>  <Molecule Name 2>
delta-dodecalactone

>  <Database>
Essential Oil Database

>  <InChI>
InChI=1S/C12H22O2/c1-2-3-4-5-6-8-11-9-7-10-12(13)14-11/h11H,2-10H2,1H3/t11-/m0/s1

>  <InChI-Key>
QRPLZGZHJABGRS-NSHDSACASA-N

>  <Smiles>
CCCCCCCC(CCC1)OC1=O

>  <Molecular Formula>
C12H22O2

$$$$
delta-octalactone
Actelion Java MolfileCreator 2.0

  0  0  0  0  0  0              0 V3000
M  V30 BEGIN CTAB
M  V30 COUNTS 10 10 0 0 0
M  V30 BEGIN ATOM
M  V30 1 O 0.0 0.0 0.0 0
M  V30 2 C 1.1492 0.8082 0.0 0
M  V30 3 O 1.0229 2.4248 0.0 0
M  V30 4 C 2.2985 0.1389 0.0 0
M  V30 5 C 2.1722 3.2457 0.0 0 CFG=2
M  V30 6 C 3.4477 0.9598 0.0 0
M  V30 7 C 3.3214 2.5763 0.0 0
M  V30 8 C 2.0459 4.8622 0.0 0
M  V30 9 C 0.644 5.6831 0.0 0
M  V30 10 C 0.5177 7.2996 0.0 0
M  V30 END ATOM
M  V30 BEGIN BOND
M  V30 1 2 1 2
M  V30 2 1 2 3
M  V30 3 1 2 4
M  V30 4 1 3 5
M  V30 5 1 4 6
M  V30 6 1 5 7
M  V30 7 1 5 8 CFG=1
M  V30 8 1 8 9
M  V30 9 1 9 10
M  V30 10 1 6 7
M  V30 END BOND
M  V30 BEGIN COLLECTION
M  V30 MDLV30/STERAC1 ATOMS=(1 5)
M  V30 END COLLECTION
M  V30 END CTAB
M  END
>  <Molecule Name>
delta-octalactone

>  <Molecule Name 2>
delta-octalactone

>  <Database>
Essential Oil Database

>  <InChI>
InChI=1S/C8H14O2/c1-2-4-7-5-3-6-8(9)10-7/h7H,2-6H2,1H3/t7-/m0/s1

>  <InChI-Key>
FYTRVXSHONWYNE-ZETCQYMHSA-N

>  <Smiles>
CCCC(CCC1)OC1=O

>  <Molecular Formula>
C8H14O2

$$$$
diethyl succinate
Actelion Java MolfileCreator 2.0

  0  0  0  0  0  0              0 V3000
M  V30 BEGIN CTAB
M  V30 COUNTS 12 11 0 0 0
M  V30 BEGIN ATOM
M  V30 1 O 0.0 0.0 0.0 0
M  V30 2 C -0.1137 -1.4218 0.0 0
M  V30 3 O -1.5697 -2.0361 0.0 0
M  V30 4 C 1.1147 -2.0361 0.0 0
M  V30 5 C -3.0257 -1.1033 0.0 0
M  V30 6 C 2.3432 -1.1033 0.0 0
M  V30 7 C -4.4817 -1.7289 0.0 0
M  V30 8 C 3.5717 -1.7289 0.0 0
M  V30 9 O 3.4579 -3.1508 0.0 0
M  V30 10 O 4.8002 -0.7962 0.0 0
M  V30 11 C 6.0287 -1.4104 0.0 0
M  V30 12 C 7.2572 -0.4777 0.0 0
M  V30 END ATOM
M  V30 BEGIN BOND
M  V30 1 2 1 2
M  V30 2 1 2 3
M  V30 3 1 2 4
M  V30 4 1 3 5
M  V30 5 1 4 6
M  V30 6 1 5 7
M  V30 7 1 6 8
M  V30 8 2 8 9
M  V30 9 1 8 10
M  V30 10 1 10 11
M  V30 11 1 11 12
M  V30 END BOND
M  V30 END CTAB
M  END
>  <Molecule Name>
diethyl succinate

>  <Molecule Name 2>
diethyl succinate

>  <Database>
Essential Oil Database

>  <InChI>
InChI=1S/C8H14O4/c1-3-11-7(9)5-6-8(10)12-4-2/h3-6H2,1-2H3

>  <InChI-Key>
DKMROQRQHGEIOW-UHFFFAOYSA-N

>  <Smiles>
CCOC(CCC(OCC)=O)=O

>  <Molecular Formula>
C8H14O4

$$$$
(e)-cinnamic acid
Actelion Java MolfileCreator 2.0

  0  0  0  0  0  0              0 V3000
M  V30 BEGIN CTAB
M  V30 COUNTS 11 11 0 0 0
M  V30 BEGIN ATOM
M  V30 1 O 0.0 0.0 0.0 0
M  V30 2 C -1.4763 -0.6228 0.0 0
M  V30 3 O -2.9527 0.3229 0.0 0
M  V30 4 C -1.5917 -2.0646 0.0 0
M  V30 5 C -0.346 -2.6759 0.0 0
M  V30 6 C -0.4613 -4.1177 0.0 0
M  V30 7 C 0.7843 -4.729 0.0 0
M  V30 8 C -1.9377 -4.729 0.0 0
M  V30 9 C 0.6689 -6.1708 0.0 0
M  V30 10 C -2.053 -6.1708 0.0 0
M  V30 11 C -0.8073 -6.7821 0.0 0
M  V30 END ATOM
M  V30 BEGIN BOND
M  V30 1 2 1 2
M  V30 2 1 2 3
M  V30 3 1 2 4
M  V30 4 2 4 5
M  V30 5 1 5 6
M  V30 6 2 6 7
M  V30 7 1 6 8
M  V30 8 1 7 9
M  V30 9 2 8 10
M  V30 10 2 9 11
M  V30 11 1 10 11
M  V30 END BOND
M  V30 END CTAB
M  END
>  <Molecule Name>
(e)-cinnamic acid

>  <Molecule Name 2>
(e)-cinnamic acid

>  <Database>
Essential Oil Database

>  <InChI>
InChI=1S/C9H8O2/c10-9(11)7-6-8-4-2-1-3-5-8/h1-7H,(H,10,11)/b7-6+

>  <InChI-Key>
WBYWAXJHAXSJNI-VOTSOKGWSA-N

>  <Smiles>
OC(/C=C/c1ccccc1)=O

>  <Molecular Formula>
C9H8O2

$$$$
ethyl-2-methylthio acetate
Actelion Java MolfileCreator 2.0

  0  0  0  0  0  0              0 V3000
M  V30 BEGIN CTAB
M  V30 COUNTS 8 7 0 0 0
M  V30 BEGIN ATOM
M  V30 1 S 0.0 0.0 0.0 0
M  V30 2 C 1.2088 -0.704 0.0 0
M  V30 3 C -1.4745 -0.704 0.0 0
M  V30 4 C 2.4177 0.1594 0.0 0
M  V30 5 O 2.2849 1.8598 0.0 0
M  V30 6 O 3.6266 -0.5446 0.0 0
M  V30 7 C 4.8355 0.3055 0.0 0
M  V30 8 C 6.0443 -0.3985 0.0 0
M  V30 END ATOM
M  V30 BEGIN BOND
M  V30 1 1 1 2
M  V30 2 1 1 3
M  V30 3 1 2 4
M  V30 4 2 4 5
M  V30 5 1 4 6
M  V30 6 1 6 7
M  V30 7 1 7 8
M  V30 END BOND
M  V30 END CTAB
M  END
>  <Molecule Name>
ethyl-2-methylthio acetate

>  <Molecule Name 2>
ethyl-2-methylthio acetate

>  <Database>
Essential Oil Database

>  <InChI>
InChI=1S/C5H10O2S/c1-3-7-5(6)4-8-2/h3-4H2,1-2H3

>  <InChI-Key>
MDIAKIHKBBNYHF-UHFFFAOYSA-N

>  <Smiles>
CCOC(CSC)=O

>  <Molecular Formula>
C5H10O2S

$$$$
ethyl-3-(methylthio)-(z)-2-propenoate
Actelion Java MolfileCreator 2.0

  0  0  0  0  0  0              0 V3000
M  V30 BEGIN CTAB
M  V30 COUNTS 9 8 0 0 0
M  V30 BEGIN ATOM
M  V30 1 S 0.0 0.0 0.0 0
M  V30 2 C 0.6292 1.5198 0.0 0
M  V30 3 C 0.6292 -1.2823 0.0 0
M  V30 4 C 2.1134 1.6385 0.0 0
M  V30 5 C 2.7427 0.3562 0.0 0
M  V30 6 O 1.781 -0.9261 0.0 0
M  V30 7 O 4.2269 0.4749 0.0 0
M  V30 8 C 4.8562 -0.8074 0.0 0
M  V30 9 C 6.3404 -0.6886 0.0 0
M  V30 END ATOM
M  V30 BEGIN BOND
M  V30 1 1 1 2
M  V30 2 1 1 3
M  V30 3 2 2 4
M  V30 4 1 4 5
M  V30 5 2 5 6
M  V30 6 1 5 7
M  V30 7 1 7 8
M  V30 8 1 8 9
M  V30 END BOND
M  V30 END CTAB
M  END
>  <Molecule Name>
ethyl-3-(methylthio)-(z)-2-propenoate

>  <Molecule Name 2>
ethyl-3-(methylthio)-(z)-2-propenoate

>  <Database>
Essential Oil Database

>  <InChI>
InChI=1S/C6H10O2S/c1-3-8-6(7)4-5-9-2/h4-5H,3H2,1-2H3/b5-4-

>  <InChI-Key>
DNNJFSSUXIAKAI-PLNGDYQASA-N

>  <Smiles>
CCOC(/C=C\SC)=O

>  <Molecular Formula>
C6H10O2S

$$$$
ethyl-4-hydroxybenzoate
Actelion Java MolfileCreator 2.0

  0  0  0  0  0  0              0 V3000
M  V30 BEGIN CTAB
M  V30 COUNTS 12 12 0 0 0
M  V30 BEGIN ATOM
M  V30 1 O 0.0 0.0 0.0 0
M  V30 2 C -1.4275 -0.6816 0.0 0
M  V30 3 O -2.855 0.1543 0.0 0
M  V30 4 C -1.5561 -2.0705 0.0 0
M  V30 5 C -2.9836 1.8004 0.0 0
M  V30 6 C -0.3858 -2.7521 0.0 0
M  V30 7 C -2.9836 -2.7521 0.0 0
M  V30 8 C -4.4111 2.6492 0.0 0
M  V30 9 C -0.5144 -4.141 0.0 0
M  V30 10 C -3.1122 -4.141 0.0 0
M  V30 11 C -1.9419 -4.8226 0.0 0
M  V30 12 O -2.0705 -6.2116 0.0 0
M  V30 END ATOM
M  V30 BEGIN BOND
M  V30 1 2 1 2
M  V30 2 1 2 3
M  V30 3 1 2 4
M  V30 4 1 3 5
M  V30 5 2 4 6
M  V30 6 1 4 7
M  V30 7 1 5 8
M  V30 8 1 6 9
M  V30 9 2 7 10
M  V30 10 2 9 11
M  V30 11 1 11 12
M  V30 12 1 10 11
M  V30 END BOND
M  V30 END CTAB
M  END
>  <Molecule Name>
ethyl-4-hydroxybenzoate

>  <Molecule Name 2>
ethyl-4-hydroxybenzoate

>  <Database>
Essential Oil Database

>  <InChI>
InChI=1S/C9H10O3/c1-2-12-9(11)7-3-5-8(10)6-4-7/h3-6,10H,2H2,1H3

>  <InChI-Key>
NUVBSKCKDOMJSU-UHFFFAOYSA-N

>  <Smiles>
CCOC(c(cc1)ccc1O)=O

>  <Molecular Formula>
C9H10O3

$$$$
ethyl-4-hydroxyphenylacetate
Actelion Java MolfileCreator 2.0

  0  0  0  0  0  0              0 V3000
M  V30 BEGIN CTAB
M  V30 COUNTS 13 13 0 0 0
M  V30 BEGIN ATOM
M  V30 1 O 0.0 0.0 0.0 0
M  V30 2 C 1.2211 0.8722 0.0 0
M  V30 3 O 1.0869 2.5899 0.0 0 CHG=-1
M  V30 4 C 2.4422 0.161 0.0 0 CFG=1
M  V30 5 C 2.3081 -1.2882 0.0 0
M  V30 6 C 3.6634 1.0332 0.0 0
M  V30 7 C 3.5292 -1.9994 0.0 0
M  V30 8 C 0.8185 -1.9994 0.0 0
M  V30 9 C 4.8845 0.322 0.0 0
M  V30 10 C 3.395 -3.4487 0.0 0
M  V30 11 C 0.6843 -3.4487 0.0 0
M  V30 12 C 1.9055 -4.1599 0.0 0
M  V30 13 O 1.7713 -5.6092 0.0 0
M  V30 END ATOM
M  V30 BEGIN BOND
M  V30 1 2 1 2
M  V30 2 1 2 3
M  V30 3 1 2 4
M  V30 4 1 4 5
M  V30 5 1 4 6 CFG=3
M  V30 6 2 5 7
M  V30 7 1 5 8
M  V30 8 1 6 9
M  V30 9 1 7 10
M  V30 10 2 8 11
M  V30 11 2 10 12
M  V30 12 1 12 13
M  V30 13 1 11 12
M  V30 END BOND
M  V30 BEGIN COLLECTION
M  V30 MDLV30/STERAC1 ATOMS=(1 4)
M  V30 END COLLECTION
M  V30 END CTAB
M  END
>  <Molecule Name>
ethyl-4-hydroxyphenylacetate

>  <Molecule Name 2>
ethyl-4-hydroxyphenylacetate

>  <Database>
Essential Oil Database

>  <InChI>
InChI=1S/C10H12O3/c1-2-9(10(12)13)7-3-5-8(11)6-4-7/h3-6,9,11H,2H2,1H3,(H,12,13)/p-1/t9-/m1/s1

>  <InChI-Key>
GEQWCUVIQMRCAZ-SECBINFHSA-M

>  <Smiles>
CCC(C([O-])=O)c(cc1)ccc1O

>  <Molecular Formula>
C10H11O3

$$$$
ethyl nicotinate
Actelion Java MolfileCreator 2.0

  0  0  0  0  0  0              0 V3000
M  V30 BEGIN CTAB
M  V30 COUNTS 11 11 0 0 0
M  V30 BEGIN ATOM
M  V30 1 O 0.0 0.0 0.0 0
M  V30 2 C -1.4195 -0.6778 0.0 0
M  V30 3 O -2.8391 0.1406 0.0 0
M  V30 4 C -1.5474 -2.059 0.0 0
M  V30 5 C -2.967 1.7776 0.0 0
M  V30 6 C -2.967 -2.7368 0.0 0
M  V30 7 C -0.3836 -2.7368 0.0 0
M  V30 8 C -4.3866 2.6089 0.0 0
M  V30 9 N -3.0949 -4.118 0.0 0
M  V30 10 C -0.5115 -4.118 0.0 0
M  V30 11 C -1.9311 -4.7958 0.0 0
M  V30 END ATOM
M  V30 BEGIN BOND
M  V30 1 2 1 2
M  V30 2 1 2 3
M  V30 3 1 2 4
M  V30 4 1 3 5
M  V30 5 2 4 6
M  V30 6 1 4 7
M  V30 7 1 5 8
M  V30 8 1 6 9
M  V30 9 2 7 10
M  V30 10 2 9 11
M  V30 11 1 10 11
M  V30 END BOND
M  V30 END CTAB
M  END
>  <Molecule Name>
ethyl nicotinate

>  <Molecule Name 2>
ethyl nicotinate

>  <Database>
Essential Oil Database

>  <InChI>
InChI=1S/C8H9NO2/c1-2-11-8(10)7-4-3-5-9-6-7/h3-6H,2H2,1H3

>  <InChI-Key>
XBLVHTDFJBKJLG-UHFFFAOYSA-N

>  <Smiles>
CCOC(c1cnccc1)=O

>  <Molecular Formula>
C8H9NO2

$$$$
ethyl octadecanoate
Actelion Java MolfileCreator 2.0

  0  0  0  0  0  0              0 V3000
M  V30 BEGIN CTAB
M  V30 COUNTS 22 21 0 0 0
M  V30 BEGIN ATOM
M  V30 1 O 0.0 0.0 0.0 0
M  V30 2 C -0.1211 1.5513 0.0 0
M  V30 3 O 0.9816 2.3391 0.0 0
M  V30 4 C -1.4664 2.3391 0.0 0
M  V30 5 C 2.0845 1.6967 0.0 0
M  V30 6 C -2.8117 1.6967 0.0 0
M  V30 7 C 3.1874 2.4845 0.0 0
M  V30 8 C -4.157 2.4845 0.0 0
M  V30 9 C -5.5023 1.8421 0.0 0
M  V30 10 C -6.8476 2.6299 0.0 0
M  V30 11 C -8.1929 1.9876 0.0 0
M  V30 12 C -9.5382 2.7754 0.0 0
M  V30 13 C -10.8834 2.133 0.0 0
M  V30 14 C -12.2287 2.9208 0.0 0
M  V30 15 C -13.574 2.2785 0.0 0
M  V30 16 C -14.9193 3.0662 0.0 0
M  V30 17 C -16.2646 2.4239 0.0 0
M  V30 18 C -17.6099 3.2117 0.0 0
M  V30 19 C -18.9552 2.5693 0.0 0
M  V30 20 C -20.3005 3.3571 0.0 0
M  V30 21 C -21.6457 2.7148 0.0 0
M  V30 22 C -22.991 3.5025 0.0 0
M  V30 END ATOM
M  V30 BEGIN BOND
M  V30 1 2 1 2
M  V30 2 1 2 3
M  V30 3 1 2 4
M  V30 4 1 3 5
M  V30 5 1 4 6
M  V30 6 1 5 7
M  V30 7 1 6 8
M  V30 8 1 8 9
M  V30 9 1 9 10
M  V30 10 1 10 11
M  V30 11 1 11 12
M  V30 12 1 12 13
M  V30 13 1 13 14
M  V30 14 1 14 15
M  V30 15 1 15 16
M  V30 16 1 16 17
M  V30 17 1 17 18
M  V30 18 1 18 19
M  V30 19 1 19 20
M  V30 20 1 20 21
M  V30 21 1 21 22
M  V30 END BOND
M  V30 END CTAB
M  END
>  <Molecule Name>
ethyl octadecanoate

>  <Molecule Name 2>
ethyl octadecanoate

>  <Database>
Essential Oil Database

>  <InChI>
InChI=1S/C20H40O2/c1-3-5-6-7-8-9-10-11-12-13-14-15-16-17-18-19-20(21)22-4-2/h3-19H2,1-2H3

>  <InChI-Key>
MVLVMROFTAUDAG-UHFFFAOYSA-N

>  <Smiles>
CCCCCCCCCCCCCCCCCC(OCC)=O

>  <Molecular Formula>
C20H40O2

$$$$
ethyl oleate
Actelion Java MolfileCreator 2.0

  0  0  0  0  0  0              0 V3000
M  V30 BEGIN CTAB
M  V30 COUNTS 22 21 0 0 0
M  V30 BEGIN ATOM
M  V30 1 O 0.0 0.0 0.0 0
M  V30 2 C -0.1201 1.5375 0.0 0
M  V30 3 O 0.9729 2.3182 0.0 0
M  V30 4 C -1.4534 2.3182 0.0 0
M  V30 5 C 2.066 1.6696 0.0 0
M  V30 6 C -2.7867 1.6696 0.0 0
M  V30 7 C 3.159 2.4504 0.0 0
M  V30 8 C -4.12 2.4504 0.0 0
M  V30 9 C -5.4533 1.8017 0.0 0
M  V30 10 C -6.7866 2.5825 0.0 0
M  V30 11 C -8.1199 1.9338 0.0 0
M  V30 12 C -9.4532 2.7146 0.0 0
M  V30 13 C -10.7865 2.078 0.0 0
M  V30 14 C -12.1198 2.8588 0.0 0
M  V30 15 C -12.2399 4.3963 0.0 0
M  V30 16 C -13.5733 5.177 0.0 0
M  V30 17 C -13.6934 6.7145 0.0 0
M  V30 18 C -15.0267 7.4953 0.0 0
M  V30 19 C -15.1468 9.0328 0.0 0
M  V30 20 C -16.4801 9.8136 0.0 0
M  V30 21 C -16.6002 11.3511 0.0 0
M  V30 22 C -17.9335 12.1318 0.0 0
M  V30 END ATOM
M  V30 BEGIN BOND
M  V30 1 2 1 2
M  V30 2 1 2 3
M  V30 3 1 2 4
M  V30 4 1 3 5
M  V30 5 1 4 6
M  V30 6 1 5 7
M  V30 7 1 6 8
M  V30 8 1 8 9
M  V30 9 1 9 10
M  V30 10 1 10 11
M  V30 11 1 11 12
M  V30 12 1 12 13
M  V30 13 2 13 14
M  V30 14 1 14 15
M  V30 15 1 15 16
M  V30 16 1 16 17
M  V30 17 1 17 18
M  V30 18 1 18 19
M  V30 19 1 19 20
M  V30 20 1 20 21
M  V30 21 1 21 22
M  V30 END BOND
M  V30 END CTAB
M  END
>  <Molecule Name>
ethyl oleate

>  <Molecule Name 2>
ethyl oleate

>  <Database>
Essential Oil Database

>  <InChI>
InChI=1S/C20H38O2/c1-3-5-6-7-8-9-10-11-12-13-14-15-16-17-18-19-20(21)22-4-2/h11-12H,3-10,13-19H2,1-2H3/b12-11-

>  <InChI-Key>
LVGKNOAMLMIIKO-QXMHVHEDSA-N

>  <Smiles>
CCCCCCCC/C=C\CCCCCCCC(OCC)=O

>  <Molecular Formula>
C20H38O2

$$$$
ethyl tiglate
Actelion Java MolfileCreator 2.0

  0  0  0  0  0  0              0 V3000
M  V30 BEGIN CTAB
M  V30 COUNTS 9 8 0 0 0
M  V30 BEGIN ATOM
M  V30 1 O 0.0 0.0 0.0 0
M  V30 2 C 1.4233 0.1138 0.0 0
M  V30 3 O 2.0268 -1.1159 0.0 0
M  V30 4 C 2.0268 1.5714 0.0 0
M  V30 5 C 1.1159 -2.3457 0.0 0
M  V30 6 C 3.4502 1.6852 0.0 0
M  V30 7 C 1.1159 3.0289 0.0 0
M  V30 8 C 1.7194 -3.5755 0.0 0
M  V30 9 C 4.0537 3.1428 0.0 0
M  V30 END ATOM
M  V30 BEGIN BOND
M  V30 1 2 1 2
M  V30 2 1 2 3
M  V30 3 1 2 4
M  V30 4 1 3 5
M  V30 5 2 4 6
M  V30 6 1 4 7
M  V30 7 1 5 8
M  V30 8 1 6 9
M  V30 END BOND
M  V30 END CTAB
M  END
>  <Molecule Name>
ethyl tiglate

>  <Molecule Name 2>
ethyl tiglate

>  <Database>
Essential Oil Database

>  <InChI>
InChI=1S/C7H12O2/c1-4-6(3)7(8)9-5-2/h4H,5H2,1-3H3/b6-4+

>  <InChI-Key>
OAPHLAAOJMTMLY-GQCTYLIASA-N

>  <Smiles>
CCOC(/C(\C)=C/C)=O

>  <Molecular Formula>
C7H12O2

$$$$
methyl-2-(methylthio)acetate
Actelion Java MolfileCreator 2.0

  0  0  0  0  0  0              0 V3000
M  V30 BEGIN CTAB
M  V30 COUNTS 7 6 0 0 0
M  V30 BEGIN ATOM
M  V30 1 S 0.0 0.0 0.0 0
M  V30 2 C -1.3694 0.8666 0.0 0
M  V30 3 C 1.1554 0.8666 0.0 0
M  V30 4 C -2.7389 0.2888 0.0 0
M  V30 5 O -2.8459 -1.0485 0.0 0
M  V30 6 O -4.1084 1.1554 0.0 0
M  V30 7 C -5.4778 0.5777 0.0 0
M  V30 END ATOM
M  V30 BEGIN BOND
M  V30 1 1 1 2
M  V30 2 1 1 3
M  V30 3 1 2 4
M  V30 4 2 4 5
M  V30 5 1 4 6
M  V30 6 1 6 7
M  V30 END BOND
M  V30 END CTAB
M  END
>  <Molecule Name>
methyl-2-(methylthio)acetate

>  <Molecule Name 2>
methyl-2-(methylthio)acetate

>  <Database>
Essential Oil Database

>  <InChI>
InChI=1S/C4H8O2S/c1-6-4(5)3-7-2/h3H2,1-2H3

>  <InChI-Key>
HZYCAKGEXXKCDM-UHFFFAOYSA-N

>  <Smiles>
COC(CSC)=O

>  <Molecular Formula>
C4H8O2S

$$$$
methyl-3-(methylthio)-(e)-2-propenoate
Actelion Java MolfileCreator 2.0

  0  0  0  0  0  0              0 V3000
M  V30 BEGIN CTAB
M  V30 COUNTS 8 7 0 0 0
M  V30 BEGIN ATOM
M  V30 1 S 0.0 0.0 0.0 0
M  V30 2 C 0.5931 1.4325 0.0 0
M  V30 3 C 0.5931 -1.2087 0.0 0
M  V30 4 C 1.9921 1.5444 0.0 0
M  V30 5 C 2.5852 2.9769 0.0 0
M  V30 6 O 1.6787 4.4095 0.0 0
M  V30 7 O 3.9842 3.0889 0.0 0
M  V30 8 C 4.5774 4.5214 0.0 0
M  V30 END ATOM
M  V30 BEGIN BOND
M  V30 1 1 1 2
M  V30 2 1 1 3
M  V30 3 2 2 4
M  V30 4 1 4 5
M  V30 5 2 5 6
M  V30 6 1 5 7
M  V30 7 1 7 8
M  V30 END BOND
M  V30 END CTAB
M  END
>  <Molecule Name>
methyl-3-(methylthio)-(e)-2-propenoate

>  <Molecule Name 2>
methyl-3-(methylthio)-(e)-2-propenoate

>  <Database>
Essential Oil Database

>  <InChI>
InChI=1S/C5H8O2S/c1-7-5(6)3-4-8-2/h3-4H,1-2H3/b4-3+

>  <InChI-Key>
KAFIOMPFBSDFPP-ONEGZZNKSA-N

>  <Smiles>
COC(/C=C/SC)=O

>  <Molecular Formula>
C5H8O2S

$$$$
methyl (e)-crotonate
Actelion Java MolfileCreator 2.0

  0  0  0  0  0  0              0 V3000
M  V30 BEGIN CTAB
M  V30 COUNTS 7 6 0 0 0
M  V30 BEGIN ATOM
M  V30 1 O 0.0 0.0 0.0 0
M  V30 2 C -0.7962 1.3809 0.0 0
M  V30 3 O -2.3887 1.5053 0.0 0
M  V30 4 C -0.1368 2.7619 0.0 0
M  V30 5 C -3.2098 0.3732 0.0 0
M  V30 6 C 1.2067 2.8863 0.0 0
M  V30 7 C 1.8661 4.2673 0.0 0
M  V30 END ATOM
M  V30 BEGIN BOND
M  V30 1 2 1 2
M  V30 2 1 2 3
M  V30 3 1 2 4
M  V30 4 1 3 5
M  V30 5 2 4 6
M  V30 6 1 6 7
M  V30 END BOND
M  V30 END CTAB
M  END
>  <Molecule Name>
methyl (e)-crotonate

>  <Molecule Name 2>
methyl (e)-crotonate

>  <Database>
Essential Oil Database

>  <InChI>
InChI=1S/C5H8O2/c1-3-4-5(6)7-2/h3-4H,1-2H3/b4-3+

>  <InChI-Key>
MCVVUJPXSBQTRZ-ONEGZZNKSA-N

>  <Smiles>
C/C=C/C(OC)=O

>  <Molecular Formula>
C5H8O2

$$$$
methyl tiglate
Actelion Java MolfileCreator 2.0

  0  0  0  0  0  0              0 V3000
M  V30 BEGIN CTAB
M  V30 COUNTS 8 7 0 0 0
M  V30 BEGIN ATOM
M  V30 1 O 0.0 0.0 0.0 0
M  V30 2 C -0.8011 1.368 0.0 0
M  V30 3 O -2.3786 1.4912 0.0 0
M  V30 4 C -0.1478 2.736 0.0 0
M  V30 5 C -3.1797 0.3697 0.0 0
M  V30 6 C 1.1831 2.8593 0.0 0
M  V30 7 C -0.9489 4.1041 0.0 0
M  V30 8 C 1.8363 4.2273 0.0 0
M  V30 END ATOM
M  V30 BEGIN BOND
M  V30 1 2 1 2
M  V30 2 1 2 3
M  V30 3 1 2 4
M  V30 4 1 3 5
M  V30 5 2 4 6
M  V30 6 1 4 7
M  V30 7 1 6 8
M  V30 END BOND
M  V30 END CTAB
M  END
>  <Molecule Name>
methyl tiglate

>  <Molecule Name 2>
methyl tiglate

>  <Database>
Essential Oil Database

>  <InChI>
InChI=1S/C6H10O2/c1-4-5(2)6(7)8-3/h4H,1-3H3/b5-4+

>  <InChI-Key>
YYJWBYNQJLBIGS-SNAWJCMRSA-N

>  <Smiles>
C/C=C(\C)/C(OC)=O

>  <Molecular Formula>
C6H10O2

$$$$
o-cumenol
Actelion Java MolfileCreator 2.0

  0  0  0  0  0  0              0 V3000
M  V30 BEGIN CTAB
M  V30 COUNTS 10 10 0 0 0
M  V30 BEGIN ATOM
M  V30 1 O 0.0 0.0 0.0 0
M  V30 2 C -1.3748 -0.6564 0.0 0
M  V30 3 C -2.7496 0.1362 0.0 0
M  V30 4 C -1.4987 -1.9941 0.0 0
M  V30 5 C -4.1245 -0.5202 0.0 0
M  V30 6 C -2.8735 1.7216 0.0 0
M  V30 7 C -2.8735 -2.6506 0.0 0
M  V30 8 C -4.2483 -1.8578 0.0 0
M  V30 9 C -4.2483 2.5267 0.0 0
M  V30 10 C -1.7464 2.5267 0.0 0
M  V30 END ATOM
M  V30 BEGIN BOND
M  V30 1 1 1 2
M  V30 2 2 2 3
M  V30 3 1 2 4
M  V30 4 1 3 5
M  V30 5 1 3 6
M  V30 6 2 4 7
M  V30 7 2 5 8
M  V30 8 1 6 9
M  V30 9 1 6 10
M  V30 10 1 7 8
M  V30 END BOND
M  V30 END CTAB
M  END
>  <Molecule Name>
o-cumenol

>  <Molecule Name 2>
o-cumenol

>  <Database>
Essential Oil Database

>  <InChI>
InChI=1S/C9H12O/c1-7(2)8-5-3-4-6-9(8)10/h3-7,10H,1-2H3

>  <InChI-Key>
CRBJBYGJVIBWIY-UHFFFAOYSA-N

>  <Smiles>
CC(C)c(cccc1)c1O

>  <Molecular Formula>
C9H12O

$$$$
(z)-cinnamyl tiglate
Actelion Java MolfileCreator 2.0

  0  0  0  0  0  0              0 V3000
M  V30 BEGIN CTAB
M  V30 COUNTS 16 16 0 0 0
M  V30 BEGIN ATOM
M  V30 1 O 0.0 0.0 0.0 0
M  V30 2 C -1.4597 -0.6969 0.0 0
M  V30 3 O -1.5912 -2.1172 0.0 0
M  V30 4 C -2.9194 0.1446 0.0 0
M  V30 5 C -0.3945 -2.8273 0.0 0
M  V30 6 C -3.0509 1.8279 0.0 0
M  V30 7 C -4.3791 -0.5523 0.0 0
M  V30 8 C -0.526 -4.2476 0.0 0
M  V30 9 C -1.8542 2.6958 0.0 0
M  V30 10 C 0.6706 -4.9446 0.0 0
M  V30 11 C 0.5391 -6.3649 0.0 0
M  V30 12 C 1.7358 -7.0619 0.0 0
M  V30 13 C -0.9205 -7.0619 0.0 0
M  V30 14 C 1.6043 -8.4821 0.0 0
M  V30 15 C -1.052 -8.4821 0.0 0
M  V30 16 C 0.1446 -9.1791 0.0 0
M  V30 END ATOM
M  V30 BEGIN BOND
M  V30 1 2 1 2
M  V30 2 1 2 3
M  V30 3 1 2 4
M  V30 4 1 3 5
M  V30 5 2 4 6
M  V30 6 1 4 7
M  V30 7 1 5 8
M  V30 8 1 6 9
M  V30 9 2 8 10
M  V30 10 1 10 11
M  V30 11 2 11 12
M  V30 12 1 11 13
M  V30 13 1 12 14
M  V30 14 2 13 15
M  V30 15 2 14 16
M  V30 16 1 15 16
M  V30 END BOND
M  V30 END CTAB
M  END
>  <Molecule Name>
(z)-cinnamyl tiglate

>  <Molecule Name 2>
(z)-cinnamyl tiglate

>  <Database>
Essential Oil Database

>  <InChI>
InChI=1S/C14H16O2/c1-3-12(2)14(15)16-11-7-10-13-8-5-4-6-9-13/h3-10H,11H2,1-2H3/b10-7+,12-3-

>  <InChI-Key>
KRNURAJANZKGQN-QVSSJFJDSA-N

>  <Smiles>
C/C=C(/C)\C(OC/C=C/c1ccccc1)=O

>  <Molecular Formula>
C14H16O2

$$$$
alpha-pinene oxide
Actelion Java MolfileCreator 2.0

  0  0  0  0  0  0              0 V3000
M  V30 BEGIN CTAB
M  V30 COUNTS 11 13 0 0 0
M  V30 BEGIN ATOM
M  V30 1 O 0.0 0.0 0.0 0
M  V30 2 C -1.5087 0.6554 0.0 0
M  V30 3 C -1.2243 -0.7914 0.0 0
M  V30 4 C -3.0175 1.3109 0.0 0
M  V30 5 C -1.1006 2.1642 0.0 0
M  V30 6 C -2.4487 -1.5829 0.0 0
M  V30 7 C -4.2419 0.5194 0.0 0
M  V30 8 C -3.7472 0.2349 0.0 0
M  V30 9 C -3.9574 -0.9275 0.0 0
M  V30 10 C -5.3302 1.7066 0.0 0
M  V30 11 C -5.8249 0.4081 0.0 0
M  V30 END ATOM
M  V30 BEGIN BOND
M  V30 1 1 1 2
M  V30 2 1 1 3
M  V30 3 1 2 4
M  V30 4 1 2 5
M  V30 5 1 3 6
M  V30 6 1 4 7
M  V30 7 1 4 8
M  V30 8 1 6 9
M  V30 9 1 7 10
M  V30 10 1 7 11
M  V30 11 1 2 3
M  V30 12 1 7 9
M  V30 13 1 8 9
M  V30 END BOND
M  V30 END CTAB
M  END
>  <Molecule Name>
alpha-pinene oxide

>  <Molecule Name 2>
alpha-pinene oxide

>  <Database>
Essential Oil Database

>  <InChI>
InChI=1S/C10H16O/c1-9(2)6-4-7(9)10(3)8(5-6)11-10/h6-8H,4-5H2,1-3H3

>  <InChI-Key>
NQFUSWIGRKFAHK-UHFFFAOYSA-N

>  <Smiles>
CC12OC1CC1C(C)(C)C2C1

>  <Molecular Formula>
C10H16O

$$$$
1,2-dihydro-1,1,6-trimethyl naphthalene
Actelion Java MolfileCreator 2.0

  0  0  0  0  0  0              0 V3000
M  V30 BEGIN CTAB
M  V30 COUNTS 13 14 0 0 0
M  V30 BEGIN ATOM
M  V30 1 C 0.0 0.0 0.0 0
M  V30 2 C -0.1118 -1.3982 0.0 0
M  V30 3 C -1.4318 0.9172 0.0 0
M  V30 4 C 1.2081 0.9172 0.0 0
M  V30 5 C -1.5436 -2.0023 0.0 0
M  V30 6 C 1.0962 -2.0023 0.0 0
M  V30 7 C -2.8636 0.3132 0.0 0
M  V30 8 C 2.4162 0.3132 0.0 0
M  V30 9 C -2.9755 -1.085 0.0 0
M  V30 10 C 2.3043 -1.085 0.0 0
M  V30 11 C 1.6555 -3.2328 0.0 0
M  V30 12 C 0.246 -3.2328 0.0 0
M  V30 13 C -4.2954 1.2304 0.0 0
M  V30 END ATOM
M  V30 BEGIN BOND
M  V30 1 2 1 2
M  V30 2 1 1 3
M  V30 3 1 1 4
M  V30 4 1 2 5
M  V30 5 1 2 6
M  V30 6 2 3 7
M  V30 7 2 4 8
M  V30 8 2 5 9
M  V30 9 1 6 10
M  V30 10 1 6 11
M  V30 11 1 6 12
M  V30 12 1 7 13
M  V30 13 1 7 9
M  V30 14 1 8 10
M  V30 END BOND
M  V30 END CTAB
M  END
>  <Molecule Name>
1,2-dihydro-1,1,6-trimethyl naphthalene

>  <Molecule Name 2>
1,2-dihydro-1,1,6-trimethyl naphthalene

>  <Database>
Essential Oil Database

>  <InChI>
InChI=1S/C13H16/c1-10-6-7-12-11(9-10)5-4-8-13(12,2)3/h4-7,9H,8H2,1-3H3

>  <InChI-Key>
RTUMCNDCAVLXEP-UHFFFAOYSA-N

>  <Smiles>
CC(C)(CC=C1)c2c1cc(C)cc2

>  <Molecular Formula>
C13H16

$$$$
sabinene hydrate
Actelion Java MolfileCreator 2.0

  0  0  0  0  0  0              0 V3000
M  V30 BEGIN CTAB
M  V30 COUNTS 11 12 0 0 0
M  V30 BEGIN ATOM
M  V30 1 O 0.0 0.0 0.0 0
M  V30 2 C -1.4189 -0.6841 0.0 0 CFG=2
M  V30 3 C -2.9772 -1.0515 0.0 0 CFG=1
M  V30 4 C -0.6587 -1.7609 0.0 0
M  V30 5 C -2.2043 0.8108 0.0 0
M  V30 6 C -3.1038 -2.4324 0.0 0 CFG=2
M  V30 7 C -4.3961 -1.7356 0.0 0
M  V30 8 C -1.6342 -2.8378 0.0 0
M  V30 9 C -3.8893 -3.6739 0.0 0
M  V30 10 C -5.5109 -3.7119 0.0 0
M  V30 11 C -3.1292 -4.7508 0.0 0
M  V30 END ATOM
M  V30 BEGIN BOND
M  V30 1 1 2 1 CFG=1
M  V30 2 1 2 3
M  V30 3 1 2 4
M  V30 4 1 2 5
M  V30 5 1 3 6
M  V30 6 1 3 7 CFG=1
M  V30 7 1 4 8
M  V30 8 1 6 9 CFG=3
M  V30 9 1 9 10
M  V30 10 1 9 11
M  V30 11 1 6 7
M  V30 12 1 6 8
M  V30 END BOND
M  V30 BEGIN COLLECTION
M  V30 MDLV30/STERAC1 ATOMS=(3 2 3 6)
M  V30 END COLLECTION
M  V30 END CTAB
M  END
>  <Molecule Name>
sabinene hydrate

>  <Molecule Name 2>
sabinene hydrate

>  <Database>
Essential Oil Database

>  <InChI>
InChI=1S/C10H18O/c1-7(2)10-5-4-9(3,11)8(10)6-10/h7-8,11H,4-6H2,1-3H3/t8-,9-,10-/m0/s1

>  <InChI-Key>
KXSDPILWMGFJMM-GUBZILKMSA-N

>  <Smiles>
CC(C)[C@@](C1)(CC2)[C@@H]1[C@@]2(C)O

>  <Molecular Formula>
C10H18O

$$$$
isopimara-7,15-diene
Actelion Java MolfileCreator 2.0

  0  0  0  0  0  0              0 V3000
M  V30 BEGIN CTAB
M  V30 COUNTS 20 22 0 0 0
M  V30 BEGIN ATOM
M  V30 1 C 0.0 0.0 0.0 0
M  V30 2 C -0.8122 -1.1372 0.0 0
M  V30 3 C -0.8122 1.3871 0.0 0 CFG=1
M  V30 4 C 1.3496 0.1249 0.0 0
M  V30 5 C -2.4118 -1.0122 0.0 0
M  V30 6 C -2.4118 1.5121 0.0 0 CFG=2
M  V30 7 C -0.1499 2.7742 0.0 0
M  V30 8 C 2.0244 1.5121 0.0 0 CFG=2
M  V30 9 C -3.2366 0.3749 0.0 0 CFG=2
M  V30 10 C -3.2366 2.8992 0.0 0
M  V30 11 C -1.737 2.8992 0.0 0
M  V30 12 C 1.1996 2.8992 0.0 0
M  V30 13 C 2.9992 0.7248 0.0 0
M  V30 14 C 2.9992 2.5493 0.0 0
M  V30 15 C -4.8362 0.4998 0.0 0
M  V30 16 C -4.8362 3.0242 0.0 0
M  V30 17 C 4.2488 1.3871 0.0 0
M  V30 18 C -5.661 1.887 0.0 0
M  V30 19 C -6.3358 0.0874 0.0 0
M  V30 20 C -4.6862 -0.8247 0.0 0
M  V30 END ATOM
M  V30 BEGIN BOND
M  V30 1 2 1 2
M  V30 2 1 1 3
M  V30 3 1 1 4
M  V30 4 1 2 5
M  V30 5 1 3 6
M  V30 6 1 3 7 CFG=1
M  V30 7 1 4 8
M  V30 8 1 9 5 CFG=1
M  V30 9 1 6 10
M  V30 10 1 6 11 CFG=1
M  V30 11 1 7 12
M  V30 12 1 8 13
M  V30 13 1 8 14 CFG=1
M  V30 14 1 9 15
M  V30 15 1 10 16
M  V30 16 2 13 17
M  V30 17 1 15 18
M  V30 18 1 15 19
M  V30 19 1 15 20
M  V30 20 1 6 9
M  V30 21 1 8 12
M  V30 22 1 16 18
M  V30 END BOND
M  V30 BEGIN COLLECTION
M  V30 MDLV30/STERAC1 ATOMS=(4 3 6 8 9)
M  V30 END COLLECTION
M  V30 END CTAB
M  END
>  <Molecule Name>
isopimara-7,15-diene

>  <Molecule Name 2>
isopimara-7,15-diene

>  <Database>
Essential Oil Database

>  <InChI>
InChI=1S/C20H32/c1-6-19(4)13-10-16-15(14-19)8-9-17-18(2,3)11-7-12-20(16,17)5/h6,8,16-17H,1,7,9-14H2,2-5H3/t16-,17-,19-,20+/m0/s1

>  <InChI-Key>
VCOVNILQQQZROK-QGZVKYPTSA-N

>  <Smiles>
CC(C)(CCC1)[C@H]2[C@@]1(C)[C@@H](CC[C@@](C)(C1)C=C)C1=CC2

>  <Molecular Formula>
C20H32

$$$$
1-cyano-3,4-epithiobutane
Actelion Java MolfileCreator 2.0

  0  0  0  0  0  0              0 V3000
M  V30 BEGIN CTAB
M  V30 COUNTS 7 7 0 0 0
M  V30 BEGIN ATOM
M  V30 1 S 0.0 0.0 0.0 0
M  V30 2 C 0.6597 1.3817 0.0 0 CFG=2
M  V30 3 C 1.3444 0.1244 0.0 0
M  V30 4 C 0.5352 2.9752 0.0 0
M  V30 5 C 1.6681 3.7843 0.0 0
M  V30 6 C 1.5436 5.3777 0.0 0
M  V30 7 N 1.4191 6.9711 0.0 0
M  V30 END ATOM
M  V30 BEGIN BOND
M  V30 1 1 1 2
M  V30 2 1 1 3
M  V30 3 1 2 4 CFG=1
M  V30 4 1 4 5
M  V30 5 1 5 6
M  V30 6 3 6 7
M  V30 7 1 2 3
M  V30 END BOND
M  V30 BEGIN COLLECTION
M  V30 MDLV30/STERAC1 ATOMS=(1 2)
M  V30 END COLLECTION
M  V30 END CTAB
M  END
>  <Molecule Name>
1-cyano-3,4-epithiobutane

>  <Molecule Name 2>
1-cyano-3,4-epithiobutane

>  <Database>
Essential Oil Database

>  <InChI>
InChI=1S/C5H7NS/c6-3-1-2-5-4-7-5/h5H,1-2,4H2/t5-/m0/s1

>  <InChI-Key>
ZAGXORSINWAUSP-YFKPBYRVSA-N

>  <Smiles>
N#CCCC1SC1

>  <Molecular Formula>
C5H7NS

$$$$
3,5-octadien-2-one
Actelion Java MolfileCreator 2.0

  0  0  0  0  0  0              0 V3000
M  V30 BEGIN CTAB
M  V30 COUNTS 9 8 0 0 0
M  V30 BEGIN ATOM
M  V30 1 O 0.0 0.0 0.0 0
M  V30 2 C 0.6983 -1.1989 0.0 0
M  V30 3 C -0.1449 -2.3979 0.0 0
M  V30 4 C 2.1212 -1.0672 0.0 0
M  V30 5 C -1.8314 -2.2662 0.0 0
M  V30 6 C -2.6878 -3.4651 0.0 0
M  V30 7 C -4.3743 -3.3334 0.0 0
M  V30 8 C -5.2307 -4.5324 0.0 0
M  V30 9 C -4.5324 -5.7313 0.0 0
M  V30 END ATOM
M  V30 BEGIN BOND
M  V30 1 2 1 2
M  V30 2 1 2 3
M  V30 3 1 2 4
M  V30 4 2 3 5
M  V30 5 1 5 6
M  V30 6 2 6 7
M  V30 7 1 7 8
M  V30 8 1 8 9
M  V30 END BOND
M  V30 END CTAB
M  END
>  <Molecule Name>
3,5-octadien-2-one

>  <Molecule Name 2>
3,5-octadien-2-one

>  <Database>
Essential Oil Database

>  <InChI>
InChI=1S/C8H12O/c1-3-4-5-6-7-8(2)9/h4-7H,3H2,1-2H3/b5-4+,7-6+

>  <InChI-Key>
LWRKMRFJEUFXIB-YTXTXJHMSA-N

>  <Smiles>
CC/C=C/C=C/C(C)=O

>  <Molecular Formula>
C8H12O

$$$$
3-phenylpropionitrile
Actelion Java MolfileCreator 2.0

  0  0  0  0  0  0              0 V3000
M  V30 BEGIN CTAB
M  V30 COUNTS 10 10 0 0 0
M  V30 BEGIN ATOM
M  V30 1 N 0.0 0.0 0.0 0
M  V30 2 C -0.1185 -1.4822 0.0 0
M  V30 3 C -0.2371 -2.9644 0.0 0
M  V30 4 C 1.0434 -3.5929 0.0 0
M  V30 5 C 0.9249 -5.0751 0.0 0
M  V30 6 C 2.2055 -5.7036 0.0 0
M  V30 7 C -0.5928 -5.7036 0.0 0
M  V30 8 C 2.0869 -7.1858 0.0 0
M  V30 9 C -0.7114 -7.1858 0.0 0
M  V30 10 C 0.5691 -7.8143 0.0 0
M  V30 END ATOM
M  V30 BEGIN BOND
M  V30 1 3 1 2
M  V30 2 1 2 3
M  V30 3 1 3 4
M  V30 4 1 4 5
M  V30 5 2 5 6
M  V30 6 1 5 7
M  V30 7 1 6 8
M  V30 8 2 7 9
M  V30 9 2 8 10
M  V30 10 1 9 10
M  V30 END BOND
M  V30 END CTAB
M  END
>  <Molecule Name>
3-phenylpropionitrile

>  <Molecule Name 2>
3-phenylpropionitrile

>  <Database>
Essential Oil Database

>  <InChI>
InChI=1S/C9H9N/c10-8-4-7-9-5-2-1-3-6-9/h1-3,5-6H,4,7H2

>  <InChI-Key>
ACRWYXSKEHUQDB-UHFFFAOYSA-N

>  <Smiles>
N#CCCc1ccccc1

>  <Molecular Formula>
C9H9N

$$$$
4-methylpentanitrile
Actelion Java MolfileCreator 2.0

  0  0  0  0  0  0              0 V3000
M  V30 BEGIN CTAB
M  V30 COUNTS 7 6 0 0 0
M  V30 BEGIN ATOM
M  V30 1 N 0.0 0.0 0.0 0
M  V30 2 C -1.3643 -0.5755 0.0 0
M  V30 3 C -2.7287 -1.1405 0.0 0
M  V30 4 C -4.093 -0.2771 0.0 0
M  V30 5 C -5.4574 -0.842 0.0 0
M  V30 6 C -6.8217 0.0213 0.0 0
M  V30 7 C -5.564 -2.1744 0.0 0
M  V30 END ATOM
M  V30 BEGIN BOND
M  V30 1 3 1 2
M  V30 2 1 2 3
M  V30 3 1 3 4
M  V30 4 1 4 5
M  V30 5 1 5 6
M  V30 6 1 5 7
M  V30 END BOND
M  V30 END CTAB
M  END
>  <Molecule Name>
4-methylpentanitrile

>  <Molecule Name 2>
4-methylpentanitrile

>  <Database>
Essential Oil Database

>  <InChI>
InChI=1S/C6H11N/c1-6(2)4-3-5-7/h6H,3-4H2,1-2H3

>  <InChI-Key>
DUJMVKJJUANUMQ-UHFFFAOYSA-N

>  <Smiles>
CC(C)CCC#N

>  <Molecular Formula>
C6H11N

$$$$
alpha-elemene
Actelion Java MolfileCreator 2.0

  0  0  0  0  0  0              0 V3000
M  V30 BEGIN CTAB
M  V30 COUNTS 15 15 0 0 0
M  V30 BEGIN ATOM
M  V30 1 C 0.0 0.0 0.0 0
M  V30 2 C -0.1259 -1.3607 0.0 0
M  V30 3 C -1.3985 0.8189 0.0 0 CFG=2
M  V30 4 C 1.1465 0.8189 0.0 0
M  V30 5 C -1.5244 -2.0284 0.0 0
M  V30 6 C -0.7685 2.2426 0.0 0
M  V30 7 C -2.797 0.1511 0.0 0
M  V30 8 C -2.2174 2.2426 0.0 0
M  V30 9 C 1.0205 2.4316 0.0 0
M  V30 10 C 2.293 0.1511 0.0 0
M  V30 11 C -1.6504 -3.3891 0.0 0
M  V30 12 C -2.9229 -1.2095 0.0 0
M  V30 13 C -1.6252 3.6159 0.0 0
M  V30 14 C -3.0489 -4.0695 0.0 0
M  V30 15 C -0.5039 -4.0695 0.0 0
M  V30 END ATOM
M  V30 BEGIN BOND
M  V30 1 2 1 2
M  V30 2 1 1 3
M  V30 3 1 1 4
M  V30 4 1 2 5
M  V30 5 1 3 6
M  V30 6 1 3 7
M  V30 7 1 3 8 CFG=3
M  V30 8 1 4 9
M  V30 9 1 4 10
M  V30 10 2 5 11
M  V30 11 1 5 12
M  V30 12 2 6 13
M  V30 13 1 11 14
M  V30 14 1 11 15
M  V30 15 1 7 12
M  V30 END BOND
M  V30 BEGIN COLLECTION
M  V30 MDLV30/STERAC1 ATOMS=(1 3)
M  V30 END COLLECTION
M  V30 END CTAB
M  END
>  <Molecule Name>
alpha-elemene

>  <Molecule Name 2>
alpha-elemene

>  <Database>
Essential Oil Database

>  <InChI>
InChI=1S/C15H24/c1-7-15(6)9-8-13(11(2)3)10-14(15)12(4)5/h7,10,12H,1,8-9H2,2-6H3/t15-/m1/s1

>  <InChI-Key>
QDUJKDRUFBJYSQ-OAHLLOKOSA-N

>  <Smiles>
CC(C)C(C(C)(CC1)C=C)=CC1=C(C)C

>  <Molecular Formula>
C15H24

$$$$
carvacrolacetate
Actelion Java MolfileCreator 2.0

  0  0  0  0  0  0              0 V3000
M  V30 BEGIN CTAB
M  V30 COUNTS 15 15 0 0 0
M  V30 BEGIN ATOM
M  V30 1 O 0.0 0.0 0.0 0
M  V30 2 C -0.1241 1.589 0.0 0
M  V30 3 O 1.0055 2.396 0.0 0 CHG=-1
M  V30 4 C -1.5021 2.396 0.0 0
M  V30 5 C -2.8802 1.738 0.0 0
M  V30 6 C -4.2582 2.545 0.0 0
M  V30 7 C -3.0043 0.3972 0.0 0
M  V30 8 C -5.6362 1.887 0.0 0
M  V30 9 C -4.3823 4.134 0.0 0
M  V30 10 C -4.3823 -0.2607 0.0 0
M  V30 11 C -5.7604 0.5462 0.0 0
M  V30 12 C -5.7604 4.941 0.0 0
M  V30 13 C -3.2526 4.941 0.0 0
M  V30 14 C -4.5065 -1.6014 0.0 0
M  V30 15 O -7.1384 -0.1117 0.0 0
M  V30 END ATOM
M  V30 BEGIN BOND
M  V30 1 2 1 2
M  V30 2 1 2 3
M  V30 3 1 2 4
M  V30 4 1 4 5
M  V30 5 2 5 6
M  V30 6 1 5 7
M  V30 7 1 6 8
M  V30 8 1 6 9
M  V30 9 2 7 10
M  V30 10 2 8 11
M  V30 11 1 9 12
M  V30 12 1 9 13
M  V30 13 1 10 14
M  V30 14 1 11 15
M  V30 15 1 10 11
M  V30 END BOND
M  V30 END CTAB
M  END
>  <Molecule Name>
carvacrolacetate

>  <Molecule Name 2>
carvacrolacetate

>  <Database>
Essential Oil Database

>  <InChI>
InChI=1S/C12H16O3/c1-7(2)10-6-11(13)8(3)4-9(10)5-12(14)15/h4,6-7,13H,5H2,1-3H3,(H,14,15)/p-1

>  <InChI-Key>
WBUHFDYYWPUQJS-UHFFFAOYSA-M

>  <Smiles>
CC(C)c1c(CC([O-])=O)cc(C)c(O)c1

>  <Molecular Formula>
C12H15O3

$$$$
(e,e)-farnesal
Actelion Java MolfileCreator 2.0

  0  0  0  0  0  0              0 V3000
M  V30 BEGIN CTAB
M  V30 COUNTS 16 15 0 0 0
M  V30 BEGIN ATOM
M  V30 1 O 0.0 0.0 0.0 0
M  V30 2 C 0.6611 -1.1352 0.0 0
M  V30 3 C -0.1372 -2.2705 0.0 0
M  V30 4 C -1.734 -2.1457 0.0 0
M  V30 5 C -2.5449 -3.281 0.0 0
M  V30 6 C -2.5449 -0.7609 0.0 0
M  V30 7 C -4.1418 -3.1562 0.0 0
M  V30 8 C -4.9527 -4.2915 0.0 0
M  V30 9 C -6.5495 -4.1667 0.0 0
M  V30 10 C -7.3604 -5.302 0.0 0
M  V30 11 C -7.3604 -2.782 0.0 0
M  V30 12 C -8.9573 -5.1772 0.0 0
M  V30 13 C -9.7682 -6.3125 0.0 0
M  V30 14 C -11.365 -6.1877 0.0 0
M  V30 15 C -12.1759 -7.323 0.0 0
M  V30 16 C -12.1759 -4.803 0.0 0
M  V30 END ATOM
M  V30 BEGIN BOND
M  V30 1 2 1 2
M  V30 2 1 2 3
M  V30 3 2 3 4
M  V30 4 1 4 5
M  V30 5 1 4 6
M  V30 6 1 5 7
M  V30 7 1 7 8
M  V30 8 2 8 9
M  V30 9 1 9 10
M  V30 10 1 9 11
M  V30 11 1 10 12
M  V30 12 1 12 13
M  V30 13 2 13 14
M  V30 14 1 14 15
M  V30 15 1 14 16
M  V30 END BOND
M  V30 END CTAB
M  END
>  <Molecule Name>
(e,e)-farnesal

>  <Molecule Name 2>
(e,e)-farnesal

>  <Database>
Essential Oil Database

>  <InChI>
InChI=1S/C15H24O/c1-13(2)7-5-8-14(3)9-6-10-15(4)11-12-16/h7,9,11-12H,5-6,8,10H2,1-4H3/b14-9+,15-11+

>  <InChI-Key>
YHRUHBBTQZKMEX-YFVJMOTDSA-N

>  <Smiles>
CC(C)=CCC/C(\C)=C/CC/C(\C)=C/C=O

>  <Molecular Formula>
C15H24O

$$$$
2-methoxy-6-methylacetophenone
Actelion Java MolfileCreator 2.0

  0  0  0  0  0  0              0 V3000
M  V30 BEGIN CTAB
M  V30 COUNTS 12 12 0 0 0
M  V30 BEGIN ATOM
M  V30 1 O 0.0 0.0 0.0 0
M  V30 2 C -1.4072 -0.6719 0.0 0
M  V30 3 C -1.534 -2.0411 0.0 0
M  V30 4 C -2.8144 0.1521 0.0 0
M  V30 5 C -2.9412 -2.713 0.0 0
M  V30 6 C -0.3803 -2.713 0.0 0
M  V30 7 O -2.9412 1.7748 0.0 0
M  V30 8 C -3.068 -4.0822 0.0 0
M  V30 9 C -4.3484 -1.8763 0.0 0
M  V30 10 C -0.5071 -4.0822 0.0 0
M  V30 11 C -4.3484 2.5989 0.0 0
M  V30 12 C -1.9143 -4.7541 0.0 0
M  V30 END ATOM
M  V30 BEGIN BOND
M  V30 1 2 1 2
M  V30 2 1 2 3
M  V30 3 1 2 4
M  V30 4 2 3 5
M  V30 5 1 3 6
M  V30 6 1 4 7
M  V30 7 1 5 8
M  V30 8 1 5 9
M  V30 9 2 6 10
M  V30 10 1 7 11
M  V30 11 2 8 12
M  V30 12 1 10 12
M  V30 END BOND
M  V30 END CTAB
M  END
>  <Molecule Name>
2-methoxy-6-methylacetophenone

>  <Molecule Name 2>
2-methoxy-6-methylacetophenone

>  <Database>
Essential Oil Database

>  <InChI>
InChI=1S/C10H12O2/c1-8-5-3-4-6-9(8)10(11)7-12-2/h3-6H,7H2,1-2H3

>  <InChI-Key>
GGOUKXJLOUNPFF-UHFFFAOYSA-N

>  <Smiles>
Cc(cccc1)c1C(COC)=O

>  <Molecular Formula>
C10H12O2

$$$$
trans-linalool oxide acetophenone
Actelion Java MolfileCreator 2.0

  0  0  0  0  0  0              0 V3000
M  V30 BEGIN CTAB
M  V30 COUNTS 20 20 0 0 0
M  V30 BEGIN ATOM
M  V30 1 O 0.0 0.0 0.0 0
M  V30 2 C 1.1776 -0.6858 0.0 0
M  V30 3 C 1.0482 -2.0835 0.0 0
M  V30 4 C 2.3553 0.1423 0.0 0
M  V30 5 C 2.2258 -2.7694 0.0 0
M  V30 6 C -0.3882 -2.7694 0.0 0
M  V30 7 C 2.2258 1.7988 0.0 0
M  V30 8 C 2.0964 -4.167 0.0 0
M  V30 9 C -0.5176 -4.167 0.0 0
M  V30 10 C 3.4035 2.64 0.0 0
M  V30 11 C 0.66 -4.8529 0.0 0
M  V30 12 C 3.2741 4.2964 0.0 0 CFG=1
M  V30 13 O 4.6717 4.4258 0.0 0
M  V30 14 C 3.1447 5.9529 0.0 0
M  V30 15 C 1.6176 4.4258 0.0 0
M  V30 16 C 4.3223 6.7941 0.0 0
M  V30 17 C 4.1929 8.4506 0.0 0
M  V30 18 C 5.3706 9.2917 0.0 0
M  V30 19 C 5.2411 10.9482 0.0 0
M  V30 20 C 6.5482 8.6059 0.0 0
M  V30 END ATOM
M  V30 BEGIN BOND
M  V30 1 2 1 2
M  V30 2 1 2 3
M  V30 3 1 2 4
M  V30 4 2 3 5
M  V30 5 1 3 6
M  V30 6 1 4 7
M  V30 7 1 5 8
M  V30 8 2 6 9
M  V30 9 2 7 10
M  V30 10 2 8 11
M  V30 11 1 10 12
M  V30 12 1 12 13
M  V30 13 1 12 14 CFG=3
M  V30 14 1 12 15
M  V30 15 1 14 16
M  V30 16 1 16 17
M  V30 17 2 17 18
M  V30 18 1 18 19
M  V30 19 1 18 20
M  V30 20 1 9 11
M  V30 END BOND
M  V30 BEGIN COLLECTION
M  V30 MDLV30/STERAC1 ATOMS=(1 12)
M  V30 END COLLECTION
M  V30 END CTAB
M  END
>  <Molecule Name>
trans-linalool oxide acetophenone

>  <Molecule Name 2>
trans-linalool oxide acetophenone

>  <Database>
Essential Oil Database

>  <InChI>
InChI=1S/C18H24O2/c1-15(2)9-7-13-18(3,20)14-8-12-17(19)16-10-5-4-6-11-16/h4-6,8-11,14,20H,7,12-13H2,1-3H3/b14-8+/t18-/m0/s1

>  <InChI-Key>
BWSFHSLOYSGVMT-QKAYDNCFSA-N

>  <Smiles>
CC(CCC=C(C)C)(/C=C/CC(c1ccccc1)=O)O

>  <Molecular Formula>
C18H24O2

$$$$
z-9-hexadecen-1-al
Actelion Java MolfileCreator 2.0

  0  0  0  0  0  0              0 V3000
M  V30 BEGIN CTAB
M  V30 COUNTS 17 16 0 0 0
M  V30 BEGIN ATOM
M  V30 1 O 0.0 0.0 0.0 0
M  V30 2 C 0.6098 1.4728 0.0 0
M  V30 3 C 2.0482 1.5879 0.0 0
M  V30 4 C 2.6581 3.0608 0.0 0
M  V30 5 C 4.0964 3.1759 0.0 0
M  V30 6 C 4.7063 4.6488 0.0 0
M  V30 7 C 6.1447 4.7638 0.0 0
M  V30 8 C 6.766 3.5211 0.0 0
M  V30 9 C 5.8455 2.2783 0.0 0
M  V30 10 C 6.4669 1.0356 0.0 0
M  V30 11 C 7.9052 1.1506 0.0 0
M  V30 12 C 8.5266 2.6235 0.0 0
M  V30 13 C 9.965 2.7386 0.0 0
M  V30 14 C 10.5748 4.2115 0.0 0
M  V30 15 C 12.0132 4.3266 0.0 0
M  V30 16 C 12.6346 5.7994 0.0 0
M  V30 17 C 14.0729 5.9145 0.0 0
M  V30 END ATOM
M  V30 BEGIN BOND
M  V30 1 2 1 2
M  V30 2 1 2 3
M  V30 3 1 3 4
M  V30 4 1 4 5
M  V30 5 1 5 6
M  V30 6 1 6 7
M  V30 7 1 7 8
M  V30 8 1 8 9
M  V30 9 1 9 10
M  V30 10 2 10 11
M  V30 11 1 11 12
M  V30 12 1 12 13
M  V30 13 1 13 14
M  V30 14 1 14 15
M  V30 15 1 15 16
M  V30 16 1 16 17
M  V30 END BOND
M  V30 END CTAB
M  END
>  <Molecule Name>
z-9-hexadecen-1-al

>  <Molecule Name 2>
z-9-hexadecen-1-al

>  <Database>
Essential Oil Database

>  <InChI>
InChI=1S/C16H30O/c1-2-3-4-5-6-7-8-9-10-11-12-13-14-15-16-17/h7-8,16H,2-6,9-15H2,1H3/b8-7-

>  <InChI-Key>
QFPVVMKZTVQDTL-FPLPWBNLSA-N

>  <Smiles>
CCCCCC/C=C\CCCCCCCC=O

>  <Molecular Formula>
C16H30O

$$$$
z-5-dodecen-1-al
Actelion Java MolfileCreator 2.0

  0  0  0  0  0  0              0 V3000
M  V30 BEGIN CTAB
M  V30 COUNTS 13 12 0 0 0
M  V30 BEGIN ATOM
M  V30 1 O 0.0 0.0 0.0 0
M  V30 2 C 1.2639 0.9596 0.0 0
M  V30 3 C 2.5278 0.3276 0.0 0
M  V30 4 C 2.4108 -1.1351 0.0 0
M  V30 5 C 0.9128 -1.7788 0.0 0
M  V30 6 C 0.7958 -3.2417 0.0 0
M  V30 7 C 2.0597 -3.8853 0.0 0
M  V30 8 C 3.3236 -2.9257 0.0 0
M  V30 9 C 4.5875 -3.5811 0.0 0
M  V30 10 C 5.8514 -2.6214 0.0 0
M  V30 11 C 7.1154 -3.2534 0.0 0
M  V30 12 C 8.3793 -2.2937 0.0 0
M  V30 13 C 9.6432 -2.9374 0.0 0
M  V30 END ATOM
M  V30 BEGIN BOND
M  V30 1 2 1 2
M  V30 2 1 2 3
M  V30 3 1 3 4
M  V30 4 1 4 5
M  V30 5 1 5 6
M  V30 6 2 6 7
M  V30 7 1 7 8
M  V30 8 1 8 9
M  V30 9 1 9 10
M  V30 10 1 10 11
M  V30 11 1 11 12
M  V30 12 1 12 13
M  V30 END BOND
M  V30 END CTAB
M  END
>  <Molecule Name>
z-5-dodecen-1-al

>  <Molecule Name 2>
z-5-dodecen-1-al

>  <Database>
Essential Oil Database

>  <InChI>
InChI=1S/C12H22O/c1-2-3-4-5-6-7-8-9-10-11-12-13/h7-8,12H,2-6,9-11H2,1H3/b8-7-

>  <InChI-Key>
MXYKXSMSECVABY-FPLPWBNLSA-N

>  <Smiles>
CCCCCC/C=C\CCCC=O

>  <Molecular Formula>
C12H22O

$$$$
1-methyl-4-propenylbenzene
Actelion Java MolfileCreator 2.0

  0  0  0  0  0  0              0 V3000
M  V30 BEGIN CTAB
M  V30 COUNTS 10 10 0 0 0
M  V30 BEGIN ATOM
M  V30 1 C 0.0 0.0 0.0 0
M  V30 2 C 1.1324 0.7964 0.0 0
M  V30 3 C -1.3813 0.7964 0.0 0
M  V30 4 C -0.1244 -1.3439 0.0 0
M  V30 5 C 1.0079 2.3892 0.0 0
M  V30 6 C -1.5057 2.3892 0.0 0
M  V30 7 C -1.5057 -2.0159 0.0 0
M  V30 8 C -0.3733 3.1981 0.0 0
M  V30 9 C -1.6301 -3.3599 0.0 0
M  V30 10 C -0.4977 4.791 0.0 0
M  V30 END ATOM
M  V30 BEGIN BOND
M  V30 1 2 1 2
M  V30 2 1 1 3
M  V30 3 1 1 4
M  V30 4 1 2 5
M  V30 5 2 3 6
M  V30 6 2 4 7
M  V30 7 2 5 8
M  V30 8 1 7 9
M  V30 9 1 8 10
M  V30 10 1 6 8
M  V30 END BOND
M  V30 END CTAB
M  END
>  <Molecule Name>
1-methyl-4-propenylbenzene

>  <Molecule Name 2>
1-methyl-4-propenylbenzene

>  <Database>
Essential Oil Database

>  <InChI>
InChI=1S/C10H12/c1-3-4-10-7-5-9(2)6-8-10/h3-8H,1-2H3/b4-3+

>  <InChI-Key>
LSMSSYSRCUNIFX-ONEGZZNKSA-N

>  <Smiles>
C/C=C/c1ccc(C)cc1

>  <Molecular Formula>
C10H12

$$$$
beta-elemenone
Actelion Java MolfileCreator 2.0

  0  0  0  0  0  0              0 V3000
M  V30 BEGIN CTAB
M  V30 COUNTS 16 16 0 0 0
M  V30 BEGIN ATOM
M  V30 1 O 0.0 0.0 0.0 0
M  V30 2 C 1.1688 0.8348 0.0 0
M  V30 3 C 2.3376 0.1541 0.0 0
M  V30 4 C 1.0403 2.4789 0.0 0
M  V30 5 C 2.2092 -1.233 0.0 0
M  V30 6 C 3.5064 0.989 0.0 0
M  V30 7 C 2.2092 3.3138 0.0 0 CFG=1
M  V30 8 C 3.378 -1.9266 0.0 0
M  V30 9 C 0.7835 -1.9266 0.0 0
M  V30 10 C 3.378 2.633 0.0 0 CFG=1
M  V30 11 C 2.8514 4.7652 0.0 0
M  V30 12 C 1.3743 4.7652 0.0 0
M  V30 13 C 4.5468 3.4679 0.0 0
M  V30 14 C 1.978 6.1652 0.0 0
M  V30 15 C 5.7157 2.7872 0.0 0
M  V30 16 C 4.4184 5.112 0.0 0
M  V30 END ATOM
M  V30 BEGIN BOND
M  V30 1 2 1 2
M  V30 2 1 2 3
M  V30 3 1 2 4
M  V30 4 2 3 5
M  V30 5 1 3 6
M  V30 6 1 4 7
M  V30 7 1 5 8
M  V30 8 1 5 9
M  V30 9 1 6 10
M  V30 10 1 7 11
M  V30 11 1 7 12 CFG=1
M  V30 12 1 10 13 CFG=1
M  V30 13 2 11 14
M  V30 14 2 13 15
M  V30 15 1 13 16
M  V30 16 1 7 10
M  V30 END BOND
M  V30 BEGIN COLLECTION
M  V30 MDLV30/STERAC1 ATOMS=(2 7 10)
M  V30 END COLLECTION
M  V30 END CTAB
M  END
>  <Molecule Name>
beta-elemenone

>  <Molecule Name 2>
beta-elemenone

>  <Database>
Essential Oil Database

>  <InChI>
InChI=1S/C15H22O/c1-7-15(6)9-14(16)12(10(2)3)8-13(15)11(4)5/h7,13H,1,4,8-9H2,2-3,5-6H3/t13-,15+/m1/s1

>  <InChI-Key>
ABLPGPHZENVRRH-HIFRSBDPSA-N

>  <Smiles>
C[C@](CC(C(C1)=C(C)C)=O)([C@H]1C(C)=C)C=C

>  <Molecular Formula>
C15H22O

$$$$
acetate
Actelion Java MolfileCreator 2.0

  0  0  0  0  0  0              0 V3000
M  V30 BEGIN CTAB
M  V30 COUNTS 4 3 0 0 0
M  V30 BEGIN ATOM
M  V30 1 O 0.0 0.0 0.0 0
M  V30 2 C -0.7696 1.3143 0.0 0
M  V30 3 O -0.142 2.6287 0.0 0 CHG=-1
M  V30 4 C -2.2853 1.4327 0.0 0
M  V30 END ATOM
M  V30 BEGIN BOND
M  V30 1 2 1 2
M  V30 2 1 2 3
M  V30 3 1 2 4
M  V30 END BOND
M  V30 END CTAB
M  END
>  <Molecule Name>
acetate

>  <Molecule Name 2>
acetate

>  <Database>
Essential Oil Database

>  <InChI>
InChI=1S/C2H4O2/c1-2(3)4/h1H3,(H,3,4)/p-1

>  <InChI-Key>
QTBSBXVTEAMEQO-UHFFFAOYSA-M

>  <Smiles>
CC([O-])=O

>  <Molecular Formula>
C2H3O2

$$$$
4-methyl-3-heptanone
Actelion Java MolfileCreator 2.0

  0  0  0  0  0  0              0 V3000
M  V30 BEGIN CTAB
M  V30 COUNTS 9 8 0 0 0
M  V30 BEGIN ATOM
M  V30 1 O 0.0 0.0 0.0 0
M  V30 2 C -0.1137 -1.4214 0.0 0
M  V30 3 C 1.1143 -2.0468 0.0 0 CFG=2
M  V30 4 C -1.5692 -2.0468 0.0 0
M  V30 5 C 2.3425 -1.1143 0.0 0
M  V30 6 C 1.0006 -3.4682 0.0 0
M  V30 7 C -3.0247 -1.1143 0.0 0
M  V30 8 C 3.5706 -1.7284 0.0 0
M  V30 9 C 4.7987 -0.7959 0.0 0
M  V30 END ATOM
M  V30 BEGIN BOND
M  V30 1 2 1 2
M  V30 2 1 2 3
M  V30 3 1 2 4
M  V30 4 1 3 5
M  V30 5 1 3 6 CFG=3
M  V30 6 1 4 7
M  V30 7 1 5 8
M  V30 8 1 8 9
M  V30 END BOND
M  V30 BEGIN COLLECTION
M  V30 MDLV30/STERAC1 ATOMS=(1 3)
M  V30 END COLLECTION
M  V30 END CTAB
M  END
>  <Molecule Name>
4-methyl-3-heptanone

>  <Molecule Name 2>
4-methyl-3-heptanone

>  <Database>
Essential Oil Database

>  <InChI>
InChI=1S/C8H16O/c1-4-6-7(3)8(9)5-2/h7H,4-6H2,1-3H3/t7-/m0/s1

>  <InChI-Key>
MVLRILUUXLBENA-ZETCQYMHSA-N

>  <Smiles>
CCCC(C)C(CC)=O

>  <Molecular Formula>
C8H16O

$$$$
(e)-3-hexenol
Actelion Java MolfileCreator 2.0

  0  0  0  0  0  0              0 V3000
M  V30 BEGIN CTAB
M  V30 COUNTS 7 6 0 0 0
M  V30 BEGIN ATOM
M  V30 1 O 0.0 0.0 0.0 0
M  V30 2 C -0.8117 -1.1364 0.0 0
M  V30 3 C -2.4102 -1.0115 0.0 0
M  V30 4 C -3.222 -2.148 0.0 0
M  V30 5 C -4.8205 -2.0231 0.0 0
M  V30 6 C -5.6323 -3.1596 0.0 0
M  V30 7 C -7.2308 -3.0347 0.0 0
M  V30 END ATOM
M  V30 BEGIN BOND
M  V30 1 1 1 2
M  V30 2 1 2 3
M  V30 3 1 3 4
M  V30 4 2 4 5
M  V30 5 1 5 6
M  V30 6 1 6 7
M  V30 END BOND
M  V30 END CTAB
M  END
>  <Molecule Name>
(e)-3-hexenol

>  <Molecule Name 2>
(e)-3-hexenol

>  <Database>
Essential Oil Database

>  <InChI>
InChI=1S/C6H12O/c1-2-3-4-5-6-7/h3-4,7H,2,5-6H2,1H3/b4-3+

>  <InChI-Key>
UFLHIIWVXFIJGU-ONEGZZNKSA-N

>  <Smiles>
CC/C=C/CCO

>  <Molecular Formula>
C6H12O

$$$$
geranyl geraniol
Actelion Java MolfileCreator 2.0

  0  0  0  0  0  0              0 V3000
M  V30 BEGIN CTAB
M  V30 COUNTS 21 20 0 0 0
M  V30 BEGIN ATOM
M  V30 1 O 0.0 0.0 0.0 0
M  V30 2 C -0.9156 1.465 0.0 0
M  V30 3 C -0.309 2.93 0.0 0
M  V30 4 C 1.1216 3.0444 0.0 0
M  V30 5 C 1.7282 4.5094 0.0 0
M  V30 6 C 1.7282 1.8083 0.0 0
M  V30 7 C 3.1589 4.6239 0.0 0
M  V30 8 C 3.7655 6.0889 0.0 0
M  V30 9 C 5.1961 6.2033 0.0 0
M  V30 10 C 5.8256 7.6683 0.0 0
M  V30 11 C 5.8256 4.9672 0.0 0
M  V30 12 C 7.2563 7.7828 0.0 0
M  V30 13 C 7.8629 9.2478 0.0 0
M  V30 14 C 9.2936 9.3622 0.0 0
M  V30 15 C 9.9002 10.8273 0.0 0
M  V30 16 C 9.9002 8.1261 0.0 0
M  V30 17 C 11.3308 10.9417 0.0 0
M  V30 18 C 11.9489 12.4067 0.0 0
M  V30 19 C 13.3796 12.5212 0.0 0
M  V30 20 C 13.9976 13.9862 0.0 0
M  V30 21 C 13.9976 11.2851 0.0 0
M  V30 END ATOM
M  V30 BEGIN BOND
M  V30 1 1 1 2
M  V30 2 1 2 3
M  V30 3 2 3 4
M  V30 4 1 4 5
M  V30 5 1 4 6
M  V30 6 1 5 7
M  V30 7 1 7 8
M  V30 8 2 8 9
M  V30 9 1 9 10
M  V30 10 1 9 11
M  V30 11 1 10 12
M  V30 12 1 12 13
M  V30 13 2 13 14
M  V30 14 1 14 15
M  V30 15 1 14 16
M  V30 16 1 15 17
M  V30 17 1 17 18
M  V30 18 2 18 19
M  V30 19 1 19 20
M  V30 20 1 19 21
M  V30 END BOND
M  V30 END CTAB
M  END
>  <Molecule Name>
geranyl geraniol

>  <Molecule Name 2>
geranyl geraniol

>  <Database>
Essential Oil Database

>  <InChI>
InChI=1S/C20H34O/c1-17(2)9-6-10-18(3)11-7-12-19(4)13-8-14-20(5)15-16-21/h9,11,13,15,21H,6-8,10,12,14,16H2,1-5H3/b18-11+,19-13+,20-15+

>  <InChI-Key>
OJISWRZIEWCUBN-QIRCYJPOSA-N

>  <Smiles>
CC(C)=CCC/C(\C)=C/CC/C(\C)=C/CC/C(\C)=C/CO

>  <Molecular Formula>
C20H34O

$$$$
methyl-2-pentenoate
Actelion Java MolfileCreator 2.0

  0  0  0  0  0  0              0 V3000
M  V30 BEGIN CTAB
M  V30 COUNTS 8 7 0 0 0
M  V30 BEGIN ATOM
M  V30 1 O 0.0 0.0 0.0 0
M  V30 2 C -1.5814 0.1235 0.0 0
M  V30 3 O -2.3844 1.4949 0.0 0 CHG=-1
M  V30 4 C -2.3844 -1.0007 0.0 0
M  V30 5 C -3.9658 -0.8771 0.0 0
M  V30 6 C -4.7689 -2.0014 0.0 0
M  V30 7 C -6.3503 -1.8779 0.0 0
M  V30 8 C -7.1657 -3.0022 0.0 0
M  V30 END ATOM
M  V30 BEGIN BOND
M  V30 1 2 1 2
M  V30 2 1 2 3
M  V30 3 1 2 4
M  V30 4 2 4 5
M  V30 5 1 5 6
M  V30 6 1 6 7
M  V30 7 1 7 8
M  V30 END BOND
M  V30 END CTAB
M  END
>  <Molecule Name>
methyl-2-pentenoate

>  <Molecule Name 2>
methyl-2-pentenoate

>  <Database>
Essential Oil Database

>  <InChI>
InChI=1S/C6H10O2/c1-2-3-4-5-6(7)8/h4-5H,2-3H2,1H3,(H,7,8)/p-1/b5-4+

>  <InChI-Key>
NIONDZDPPYHYKY-SNAWJCMRSA-M

>  <Smiles>
CCC/C=C/C([O-])=O

>  <Molecular Formula>
C6H9O2

$$$$
pentyl 2-methyl-2-butenoate
Actelion Java MolfileCreator 2.0

  0  0  0  0  0  0              0 V3000
M  V30 BEGIN CTAB
M  V30 COUNTS 12 11 0 0 0
M  V30 BEGIN ATOM
M  V30 1 O 0.0 0.0 0.0 0
M  V30 2 C -0.1137 -1.4218 0.0 0
M  V30 3 O 1.1147 -2.0361 0.0 0
M  V30 4 C -1.5697 -2.0361 0.0 0
M  V30 5 C 2.3432 -1.1033 0.0 0
M  V30 6 C -3.0257 -1.1033 0.0 0
M  V30 7 C -1.6834 -3.4579 0.0 0
M  V30 8 C 3.5717 -1.7289 0.0 0
M  V30 9 C -4.4817 -1.7289 0.0 0
M  V30 10 C 4.8002 -0.7962 0.0 0
M  V30 11 C 6.0287 -1.4104 0.0 0
M  V30 12 C 7.2572 -0.4777 0.0 0
M  V30 END ATOM
M  V30 BEGIN BOND
M  V30 1 2 1 2
M  V30 2 1 2 3
M  V30 3 1 2 4
M  V30 4 1 3 5
M  V30 5 2 4 6
M  V30 6 1 4 7
M  V30 7 1 5 8
M  V30 8 1 6 9
M  V30 9 1 8 10
M  V30 10 1 10 11
M  V30 11 1 11 12
M  V30 END BOND
M  V30 END CTAB
M  END
>  <Molecule Name>
pentyl 2-methyl-2-butenoate

>  <Molecule Name 2>
pentyl 2-methyl-2-butenoate

>  <Database>
Essential Oil Database

>  <InChI>
InChI=1S/C10H18O2/c1-4-6-7-8-12-10(11)9(3)5-2/h5H,4,6-8H2,1-3H3/b9-5+

>  <InChI-Key>
XJWDRSSGOHXOLQ-WEVVVXLNSA-N

>  <Smiles>
CCCCCOC(/C(\C)=C/C)=O

>  <Molecular Formula>
C10H18O2

$$$$
3-benzylpropanal
Actelion Java MolfileCreator 2.0

  0  0  0  0  0  0              0 V3000
M  V30 BEGIN CTAB
M  V30 COUNTS 11 11 0 0 0
M  V30 BEGIN ATOM
M  V30 1 O 0.0 0.0 0.0 0
M  V30 2 C 1.2773 -0.6328 0.0 0
M  V30 3 C 2.5547 0.3398 0.0 0
M  V30 4 C 3.832 -0.2929 0.0 0
M  V30 5 C 5.1094 0.6796 0.0 0
M  V30 6 C 6.3868 0.0468 0.0 0
M  V30 7 C 7.6641 1.0195 0.0 0
M  V30 8 C 6.2696 -1.4297 0.0 0
M  V30 9 C 8.9415 0.3867 0.0 0
M  V30 10 C 7.5469 -2.0508 0.0 0
M  V30 11 C 8.8243 -1.0898 0.0 0
M  V30 END ATOM
M  V30 BEGIN BOND
M  V30 1 2 1 2
M  V30 2 1 2 3
M  V30 3 1 3 4
M  V30 4 1 4 5
M  V30 5 1 5 6
M  V30 6 2 6 7
M  V30 7 1 6 8
M  V30 8 1 7 9
M  V30 9 2 8 10
M  V30 10 2 9 11
M  V30 11 1 10 11
M  V30 END BOND
M  V30 END CTAB
M  END
>  <Molecule Name>
3-benzylpropanal

>  <Molecule Name 2>
3-benzylpropanal

>  <Database>
Essential Oil Database

>  <InChI>
InChI=1S/C10H12O/c11-9-5-4-8-10-6-2-1-3-7-10/h1-3,6-7,9H,4-5,8H2

>  <InChI-Key>
NHFRGTVSKOPUBK-UHFFFAOYSA-N

>  <Smiles>
O=CCCCc1ccccc1

>  <Molecular Formula>
C10H12O

$$$$
3,4-dimethoxybenzaldehyde
Actelion Java MolfileCreator 2.0

  0  0  0  0  0  0              0 V3000
M  V30 BEGIN CTAB
M  V30 COUNTS 12 12 0 0 0
M  V30 BEGIN ATOM
M  V30 1 O 0.0 0.0 0.0 0
M  V30 2 C 1.2884 -0.6322 0.0 0
M  V30 3 C 1.1691 -2.1234 0.0 0
M  V30 4 C 2.4575 -2.7557 0.0 0
M  V30 5 C -0.3578 -2.7557 0.0 0
M  V30 6 C 2.3382 -4.2469 0.0 0
M  V30 7 C -0.4771 -4.2469 0.0 0
M  V30 8 O 3.6266 -4.8792 0.0 0
M  V30 9 C 0.8112 -4.8792 0.0 0
M  V30 10 C 3.5073 -6.3704 0.0 0
M  V30 11 O 0.6919 -6.3704 0.0 0
M  V30 12 C 1.9803 -7.0862 0.0 0
M  V30 END ATOM
M  V30 BEGIN BOND
M  V30 1 2 1 2
M  V30 2 1 2 3
M  V30 3 2 3 4
M  V30 4 1 3 5
M  V30 5 1 4 6
M  V30 6 2 5 7
M  V30 7 1 6 8
M  V30 8 2 6 9
M  V30 9 1 8 10
M  V30 10 1 9 11
M  V30 11 1 11 12
M  V30 12 1 7 9
M  V30 END BOND
M  V30 END CTAB
M  END
>  <Molecule Name>
3,4-dimethoxybenzaldehyde

>  <Molecule Name 2>
3,4-dimethoxybenzaldehyde

>  <Database>
Essential Oil Database

>  <InChI>
InChI=1S/C9H10O3/c1-11-8-4-3-7(6-10)5-9(8)12-2/h3-6H,1-2H3

>  <InChI-Key>
WJUFSDZVCOTFON-UHFFFAOYSA-N

>  <Smiles>
COc(ccc(C=O)c1)c1OC

>  <Molecular Formula>
C9H10O3

$$$$
hexacosanol
Actelion Java MolfileCreator 2.0

  0  0  0  0  0  0              0 V3000
M  V30 BEGIN CTAB
M  V30 COUNTS 27 26 0 0 0
M  V30 BEGIN ATOM
M  V30 1 O 0.0 0.0 0.0 0
M  V30 2 C 1.2552 0.9165 0.0 0
M  V30 3 C 2.5105 0.1992 0.0 0
M  V30 4 C 3.7657 1.1157 0.0 0
M  V30 5 C 5.021 0.3984 0.0 0
M  V30 6 C 6.2762 1.315 0.0 0
M  V30 7 C 7.5315 0.5977 0.0 0
M  V30 8 C 8.7868 1.5142 0.0 0
M  V30 9 C 10.042 0.7969 0.0 0
M  V30 10 C 11.2973 1.7135 0.0 0
M  V30 11 C 12.5525 0.9962 0.0 0
M  V30 12 C 13.8078 1.9127 0.0 0
M  V30 13 C 15.063 1.1954 0.0 0
M  V30 14 C 16.3183 2.112 0.0 0
M  V30 15 C 17.5736 1.3947 0.0 0
M  V30 16 C 18.8288 2.3112 0.0 0
M  V30 17 C 20.0841 1.5939 0.0 0
M  V30 18 C 21.3393 2.5105 0.0 0
M  V30 19 C 22.5946 1.7932 0.0 0
M  V30 20 C 23.8498 2.7097 0.0 0
M  V30 21 C 25.1051 1.9924 0.0 0
M  V30 22 C 26.3604 2.909 0.0 0
M  V30 23 C 27.6156 2.1917 0.0 0
M  V30 24 C 28.8709 3.1082 0.0 0
M  V30 25 C 30.1261 2.3909 0.0 0
M  V30 26 C 31.3814 3.3075 0.0 0
M  V30 27 C 32.6366 2.5902 0.0 0
M  V30 END ATOM
M  V30 BEGIN BOND
M  V30 1 1 1 2
M  V30 2 1 2 3
M  V30 3 1 3 4
M  V30 4 1 4 5
M  V30 5 1 5 6
M  V30 6 1 6 7
M  V30 7 1 7 8
M  V30 8 1 8 9
M  V30 9 1 9 10
M  V30 10 1 10 11
M  V30 11 1 11 12
M  V30 12 1 12 13
M  V30 13 1 13 14
M  V30 14 1 14 15
M  V30 15 1 15 16
M  V30 16 1 16 17
M  V30 17 1 17 18
M  V30 18 1 18 19
M  V30 19 1 19 20
M  V30 20 1 20 21
M  V30 21 1 21 22
M  V30 22 1 22 23
M  V30 23 1 23 24
M  V30 24 1 24 25
M  V30 25 1 25 26
M  V30 26 1 26 27
M  V30 END BOND
M  V30 END CTAB
M  END
>  <Molecule Name>
hexacosanol

>  <Molecule Name 2>
hexacosanol

>  <Database>
Essential Oil Database

>  <InChI>
InChI=1S/C26H54O/c1-2-3-4-5-6-7-8-9-10-11-12-13-14-15-16-17-18-19-20-21-22-23-24-25-26-27/h27H,2-26H2,1H3

>  <InChI-Key>
IRHTZOCLLONTOC-UHFFFAOYSA-N

>  <Smiles>
CCCCCCCCCCCCCCCCCCCCCCCCCCO

>  <Molecular Formula>
C26H54O

$$$$
docosanal
Actelion Java MolfileCreator 2.0

  0  0  0  0  0  0              0 V3000
M  V30 BEGIN CTAB
M  V30 COUNTS 23 22 0 0 0
M  V30 BEGIN ATOM
M  V30 1 O 0.0 0.0 0.0 0
M  V30 2 C 1.2552 0.9165 0.0 0
M  V30 3 C 2.5105 0.1992 0.0 0
M  V30 4 C 3.7657 1.1157 0.0 0
M  V30 5 C 5.021 0.3984 0.0 0
M  V30 6 C 6.2762 1.315 0.0 0
M  V30 7 C 7.5315 0.5977 0.0 0
M  V30 8 C 8.7868 1.5142 0.0 0
M  V30 9 C 10.042 0.7969 0.0 0
M  V30 10 C 11.2973 1.7135 0.0 0
M  V30 11 C 12.5525 0.9962 0.0 0
M  V30 12 C 13.8078 1.9127 0.0 0
M  V30 13 C 15.063 1.1954 0.0 0
M  V30 14 C 16.3183 2.112 0.0 0
M  V30 15 C 17.5736 1.3947 0.0 0
M  V30 16 C 18.8288 2.3112 0.0 0
M  V30 17 C 20.0841 1.5939 0.0 0
M  V30 18 C 21.3393 2.5105 0.0 0
M  V30 19 C 22.5946 1.7932 0.0 0
M  V30 20 C 23.8498 2.7097 0.0 0
M  V30 21 C 25.1051 1.9924 0.0 0
M  V30 22 C 26.3604 2.909 0.0 0
M  V30 23 C 27.6156 2.1917 0.0 0
M  V30 END ATOM
M  V30 BEGIN BOND
M  V30 1 2 1 2
M  V30 2 1 2 3
M  V30 3 1 3 4
M  V30 4 1 4 5
M  V30 5 1 5 6
M  V30 6 1 6 7
M  V30 7 1 7 8
M  V30 8 1 8 9
M  V30 9 1 9 10
M  V30 10 1 10 11
M  V30 11 1 11 12
M  V30 12 1 12 13
M  V30 13 1 13 14
M  V30 14 1 14 15
M  V30 15 1 15 16
M  V30 16 1 16 17
M  V30 17 1 17 18
M  V30 18 1 18 19
M  V30 19 1 19 20
M  V30 20 1 20 21
M  V30 21 1 21 22
M  V30 22 1 22 23
M  V30 END BOND
M  V30 END CTAB
M  END
>  <Molecule Name>
docosanal

>  <Molecule Name 2>
docosanal

>  <Database>
Essential Oil Database

>  <InChI>
InChI=1S/C22H44O/c1-2-3-4-5-6-7-8-9-10-11-12-13-14-15-16-17-18-19-20-21-22-23/h22H,2-21H2,1H3

>  <InChI-Key>
ULCXRAFXRZTNRO-UHFFFAOYSA-N

>  <Smiles>
CCCCCCCCCCCCCCCCCCCCCC=O

>  <Molecular Formula>
C22H44O

$$$$
octadecanal
Actelion Java MolfileCreator 2.0

  0  0  0  0  0  0              0 V3000
M  V30 BEGIN CTAB
M  V30 COUNTS 19 18 0 0 0
M  V30 BEGIN ATOM
M  V30 1 O 0.0 0.0 0.0 0
M  V30 2 C 1.2552 0.9165 0.0 0
M  V30 3 C 2.5105 0.1992 0.0 0
M  V30 4 C 3.7657 1.1157 0.0 0
M  V30 5 C 5.021 0.3984 0.0 0
M  V30 6 C 6.2762 1.315 0.0 0
M  V30 7 C 7.5315 0.5977 0.0 0
M  V30 8 C 8.7868 1.5142 0.0 0
M  V30 9 C 10.042 0.7969 0.0 0
M  V30 10 C 11.2973 1.7135 0.0 0
M  V30 11 C 12.5525 0.9962 0.0 0
M  V30 12 C 13.8078 1.9127 0.0 0
M  V30 13 C 15.063 1.1954 0.0 0
M  V30 14 C 16.3183 2.112 0.0 0
M  V30 15 C 17.5736 1.3947 0.0 0
M  V30 16 C 18.8288 2.3112 0.0 0
M  V30 17 C 20.0841 1.5939 0.0 0
M  V30 18 C 21.3393 2.5105 0.0 0
M  V30 19 C 22.5946 1.7932 0.0 0
M  V30 END ATOM
M  V30 BEGIN BOND
M  V30 1 2 1 2
M  V30 2 1 2 3
M  V30 3 1 3 4
M  V30 4 1 4 5
M  V30 5 1 5 6
M  V30 6 1 6 7
M  V30 7 1 7 8
M  V30 8 1 8 9
M  V30 9 1 9 10
M  V30 10 1 10 11
M  V30 11 1 11 12
M  V30 12 1 12 13
M  V30 13 1 13 14
M  V30 14 1 14 15
M  V30 15 1 15 16
M  V30 16 1 16 17
M  V30 17 1 17 18
M  V30 18 1 18 19
M  V30 END BOND
M  V30 END CTAB
M  END
>  <Molecule Name>
octadecanal

>  <Molecule Name 2>
octadecanal

>  <Database>
Essential Oil Database

>  <InChI>
InChI=1S/C18H36O/c1-2-3-4-5-6-7-8-9-10-11-12-13-14-15-16-17-18-19/h18H,2-17H2,1H3

>  <InChI-Key>
FWWQKRXKHIRPJY-UHFFFAOYSA-N

>  <Smiles>
CCCCCCCCCCCCCCCCCC=O

>  <Molecular Formula>
C18H36O

$$$$
tetracosanol
Actelion Java MolfileCreator 2.0

  0  0  0  0  0  0              0 V3000
M  V30 BEGIN CTAB
M  V30 COUNTS 25 24 0 0 0
M  V30 BEGIN ATOM
M  V30 1 O 0.0 0.0 0.0 0
M  V30 2 C 1.2552 0.9165 0.0 0
M  V30 3 C 2.5105 0.1992 0.0 0
M  V30 4 C 3.7657 1.1157 0.0 0
M  V30 5 C 5.021 0.3984 0.0 0
M  V30 6 C 6.2762 1.315 0.0 0
M  V30 7 C 7.5315 0.5977 0.0 0
M  V30 8 C 8.7868 1.5142 0.0 0
M  V30 9 C 10.042 0.7969 0.0 0
M  V30 10 C 11.2973 1.7135 0.0 0
M  V30 11 C 12.5525 0.9962 0.0 0
M  V30 12 C 13.8078 1.9127 0.0 0
M  V30 13 C 15.063 1.1954 0.0 0
M  V30 14 C 16.3183 2.112 0.0 0
M  V30 15 C 17.5736 1.3947 0.0 0
M  V30 16 C 18.8288 2.3112 0.0 0
M  V30 17 C 20.0841 1.5939 0.0 0
M  V30 18 C 21.3393 2.5105 0.0 0
M  V30 19 C 22.5946 1.7932 0.0 0
M  V30 20 C 23.8498 2.7097 0.0 0
M  V30 21 C 25.1051 1.9924 0.0 0
M  V30 22 C 26.3604 2.909 0.0 0
M  V30 23 C 27.6156 2.1917 0.0 0
M  V30 24 C 28.8709 3.1082 0.0 0
M  V30 25 C 30.1261 2.3909 0.0 0
M  V30 END ATOM
M  V30 BEGIN BOND
M  V30 1 1 1 2
M  V30 2 1 2 3
M  V30 3 1 3 4
M  V30 4 1 4 5
M  V30 5 1 5 6
M  V30 6 1 6 7
M  V30 7 1 7 8
M  V30 8 1 8 9
M  V30 9 1 9 10
M  V30 10 1 10 11
M  V30 11 1 11 12
M  V30 12 1 12 13
M  V30 13 1 13 14
M  V30 14 1 14 15
M  V30 15 1 15 16
M  V30 16 1 16 17
M  V30 17 1 17 18
M  V30 18 1 18 19
M  V30 19 1 19 20
M  V30 20 1 20 21
M  V30 21 1 21 22
M  V30 22 1 22 23
M  V30 23 1 23 24
M  V30 24 1 24 25
M  V30 END BOND
M  V30 END CTAB
M  END
>  <Molecule Name>
tetracosanol

>  <Molecule Name 2>
tetracosanol

>  <Database>
Essential Oil Database

>  <InChI>
InChI=1S/C24H50O/c1-2-3-4-5-6-7-8-9-10-11-12-13-14-15-16-17-18-19-20-21-22-23-24-25/h25H,2-24H2,1H3

>  <InChI-Key>
TYWMIZZBOVGFOV-UHFFFAOYSA-N

>  <Smiles>
CCCCCCCCCCCCCCCCCCCCCCCCO

>  <Molecular Formula>
C24H50O

$$$$
docosanol
Actelion Java MolfileCreator 2.0

  0  0  0  0  0  0              0 V3000
M  V30 BEGIN CTAB
M  V30 COUNTS 23 22 0 0 0
M  V30 BEGIN ATOM
M  V30 1 O 0.0 0.0 0.0 0
M  V30 2 C 1.2552 0.9165 0.0 0
M  V30 3 C 2.5105 0.1992 0.0 0
M  V30 4 C 3.7657 1.1157 0.0 0
M  V30 5 C 5.021 0.3984 0.0 0
M  V30 6 C 6.2762 1.315 0.0 0
M  V30 7 C 7.5315 0.5977 0.0 0
M  V30 8 C 8.7868 1.5142 0.0 0
M  V30 9 C 10.042 0.7969 0.0 0
M  V30 10 C 11.2973 1.7135 0.0 0
M  V30 11 C 12.5525 0.9962 0.0 0
M  V30 12 C 13.8078 1.9127 0.0 0
M  V30 13 C 15.063 1.1954 0.0 0
M  V30 14 C 16.3183 2.112 0.0 0
M  V30 15 C 17.5736 1.3947 0.0 0
M  V30 16 C 18.8288 2.3112 0.0 0
M  V30 17 C 20.0841 1.5939 0.0 0
M  V30 18 C 21.3393 2.5105 0.0 0
M  V30 19 C 22.5946 1.7932 0.0 0
M  V30 20 C 23.8498 2.7097 0.0 0
M  V30 21 C 25.1051 1.9924 0.0 0
M  V30 22 C 26.3604 2.909 0.0 0
M  V30 23 C 27.6156 2.1917 0.0 0
M  V30 END ATOM
M  V30 BEGIN BOND
M  V30 1 1 1 2
M  V30 2 1 2 3
M  V30 3 1 3 4
M  V30 4 1 4 5
M  V30 5 1 5 6
M  V30 6 1 6 7
M  V30 7 1 7 8
M  V30 8 1 8 9
M  V30 9 1 9 10
M  V30 10 1 10 11
M  V30 11 1 11 12
M  V30 12 1 12 13
M  V30 13 1 13 14
M  V30 14 1 14 15
M  V30 15 1 15 16
M  V30 16 1 16 17
M  V30 17 1 17 18
M  V30 18 1 18 19
M  V30 19 1 19 20
M  V30 20 1 20 21
M  V30 21 1 21 22
M  V30 22 1 22 23
M  V30 END BOND
M  V30 END CTAB
M  END
>  <Molecule Name>
docosanol

>  <Molecule Name 2>
docosanol

>  <Database>
Essential Oil Database

>  <InChI>
InChI=1S/C22H46O/c1-2-3-4-5-6-7-8-9-10-11-12-13-14-15-16-17-18-19-20-21-22-23/h23H,2-22H2,1H3

>  <InChI-Key>
NOPFSRXAKWQILS-UHFFFAOYSA-N

>  <Smiles>
CCCCCCCCCCCCCCCCCCCCCCO

>  <Molecular Formula>
C22H46O

$$$$
eicosanal
Actelion Java MolfileCreator 2.0

  0  0  0  0  0  0              0 V3000
M  V30 BEGIN CTAB
M  V30 COUNTS 21 20 0 0 0
M  V30 BEGIN ATOM
M  V30 1 O 0.0 0.0 0.0 0
M  V30 2 C 1.2552 0.9165 0.0 0
M  V30 3 C 2.5105 0.1992 0.0 0
M  V30 4 C 3.7657 1.1157 0.0 0
M  V30 5 C 5.021 0.3984 0.0 0
M  V30 6 C 6.2762 1.315 0.0 0
M  V30 7 C 7.5315 0.5977 0.0 0
M  V30 8 C 8.7868 1.5142 0.0 0
M  V30 9 C 10.042 0.7969 0.0 0
M  V30 10 C 11.2973 1.7135 0.0 0
M  V30 11 C 12.5525 0.9962 0.0 0
M  V30 12 C 13.8078 1.9127 0.0 0
M  V30 13 C 15.063 1.1954 0.0 0
M  V30 14 C 16.3183 2.112 0.0 0
M  V30 15 C 17.5736 1.3947 0.0 0
M  V30 16 C 18.8288 2.3112 0.0 0
M  V30 17 C 20.0841 1.5939 0.0 0
M  V30 18 C 21.3393 2.5105 0.0 0
M  V30 19 C 22.5946 1.7932 0.0 0
M  V30 20 C 23.8498 2.7097 0.0 0
M  V30 21 C 25.1051 1.9924 0.0 0
M  V30 END ATOM
M  V30 BEGIN BOND
M  V30 1 2 1 2
M  V30 2 1 2 3
M  V30 3 1 3 4
M  V30 4 1 4 5
M  V30 5 1 5 6
M  V30 6 1 6 7
M  V30 7 1 7 8
M  V30 8 1 8 9
M  V30 9 1 9 10
M  V30 10 1 10 11
M  V30 11 1 11 12
M  V30 12 1 12 13
M  V30 13 1 13 14
M  V30 14 1 14 15
M  V30 15 1 15 16
M  V30 16 1 16 17
M  V30 17 1 17 18
M  V30 18 1 18 19
M  V30 19 1 19 20
M  V30 20 1 20 21
M  V30 END BOND
M  V30 END CTAB
M  END
>  <Molecule Name>
eicosanal

>  <Molecule Name 2>
eicosanal

>  <Database>
Essential Oil Database

>  <InChI>
InChI=1S/C20H40O/c1-2-3-4-5-6-7-8-9-10-11-12-13-14-15-16-17-18-19-20-21/h20H,2-19H2,1H3

>  <InChI-Key>
FWBUWJHWAKTPHI-UHFFFAOYSA-N

>  <Smiles>
CCCCCCCCCCCCCCCCCCCC=O

>  <Molecular Formula>
C20H40O

$$$$
4-methylguaiacol
Actelion Java MolfileCreator 2.0

  0  0  0  0  0  0              0 V3000
M  V30 BEGIN CTAB
M  V30 COUNTS 10 10 0 0 0
M  V30 BEGIN ATOM
M  V30 1 O 0.0 0.0 0.0 0
M  V30 2 C -0.1138 -1.4235 0.0 0
M  V30 3 C -1.4577 0.9224 0.0 0
M  V30 4 C -1.5715 -2.0271 0.0 0
M  V30 5 C 1.116 -2.0271 0.0 0
M  V30 6 O -3.0292 -1.1046 0.0 0
M  V30 7 C -1.6854 -3.4506 0.0 0
M  V30 8 C 1.0021 -3.4506 0.0 0
M  V30 9 C -0.4555 -4.0542 0.0 0
M  V30 10 C 2.2321 -4.0542 0.0 0
M  V30 END ATOM
M  V30 BEGIN BOND
M  V30 1 1 1 2
M  V30 2 1 1 3
M  V30 3 2 2 4
M  V30 4 1 2 5
M  V30 5 1 4 6
M  V30 6 1 4 7
M  V30 7 2 5 8
M  V30 8 2 7 9
M  V30 9 1 8 10
M  V30 10 1 8 9
M  V30 END BOND
M  V30 END CTAB
M  END
>  <Molecule Name>
4-methylguaiacol

>  <Molecule Name 2>
4-methylguaiacol

>  <Database>
Essential Oil Database

>  <InChI>
InChI=1S/C8H10O2/c1-6-3-4-7(9)8(5-6)10-2/h3-5,9H,1-2H3

>  <InChI-Key>
PETRWTHZSKVLRE-UHFFFAOYSA-N

>  <Smiles>
Cc(cc1)cc(OC)c1O

>  <Molecular Formula>
C8H10O2

$$$$
1,1-diethoxyethane
Actelion Java MolfileCreator 2.0

  0  0  0  0  0  0              0 V3000
M  V30 BEGIN CTAB
M  V30 COUNTS 8 7 0 0 0
M  V30 BEGIN ATOM
M  V30 1 O 0.0 0.0 0.0 0
M  V30 2 C 1.2195 -0.621 0.0 0
M  V30 3 C -1.4453 -0.621 0.0 0
M  V30 4 O 2.439 0.3048 0.0 0
M  V30 5 C 1.1065 -2.0325 0.0 0
M  V30 6 C -2.8906 0.3048 0.0 0
M  V30 7 C 3.6585 -0.3048 0.0 0
M  V30 8 C 4.878 0.621 0.0 0
M  V30 END ATOM
M  V30 BEGIN BOND
M  V30 1 1 1 2
M  V30 2 1 1 3
M  V30 3 1 2 4
M  V30 4 1 2 5
M  V30 5 1 3 6
M  V30 6 1 4 7
M  V30 7 1 7 8
M  V30 END BOND
M  V30 END CTAB
M  END
>  <Molecule Name>
1,1-diethoxyethane

>  <Molecule Name 2>
1,1-diethoxyethane

>  <Database>
Essential Oil Database

>  <InChI>
InChI=1S/C6H14O2/c1-4-7-6(3)8-5-2/h6H,4-5H2,1-3H3

>  <InChI-Key>
DHKHKXVYLBGOIT-UHFFFAOYSA-N

>  <Smiles>
CCOC(C)OCC

>  <Molecular Formula>
C6H14O2

$$$$
2-ethoxybenzoic acid
Actelion Java MolfileCreator 2.0

  0  0  0  0  0  0              0 V3000
M  V30 BEGIN CTAB
M  V30 COUNTS 12 12 0 0 0
M  V30 BEGIN ATOM
M  V30 1 O 0.0 0.0 0.0 0
M  V30 2 C -1.464 -0.6062 0.0 0
M  V30 3 O -2.9281 0.3088 0.0 0
M  V30 4 C -1.5784 -2.036 0.0 0
M  V30 5 C -0.3431 -2.6422 0.0 0
M  V30 6 C -3.0425 -2.6422 0.0 0
M  V30 7 O 0.8921 -1.7157 0.0 0
M  V30 8 C -0.4575 -4.072 0.0 0
M  V30 9 C -3.1569 -4.072 0.0 0
M  V30 10 C 2.1275 -2.3219 0.0 0
M  V30 11 C -1.9216 -4.6782 0.0 0
M  V30 12 C 3.3628 -1.3954 0.0 0
M  V30 END ATOM
M  V30 BEGIN BOND
M  V30 1 2 1 2
M  V30 2 1 2 3
M  V30 3 1 2 4
M  V30 4 2 4 5
M  V30 5 1 4 6
M  V30 6 1 5 7
M  V30 7 1 5 8
M  V30 8 2 6 9
M  V30 9 1 7 10
M  V30 10 2 8 11
M  V30 11 1 10 12
M  V30 12 1 9 11
M  V30 END BOND
M  V30 END CTAB
M  END
>  <Molecule Name>
2-ethoxybenzoic acid

>  <Molecule Name 2>
2-ethoxybenzoic acid

>  <Database>
Essential Oil Database

>  <InChI>
InChI=1S/C9H10O3/c1-2-12-8-6-4-3-5-7(8)9(10)11/h3-6H,2H2,1H3,(H,10,11)

>  <InChI-Key>
XDZMPRGFOOFSBL-UHFFFAOYSA-N

>  <Smiles>
CCOc(cccc1)c1C(O)=O

>  <Molecular Formula>
C9H10O3

$$$$
5-methylhexanal
Actelion Java MolfileCreator 2.0

  0  0  0  0  0  0              0 V3000
M  V30 BEGIN CTAB
M  V30 COUNTS 8 7 0 0 0
M  V30 BEGIN ATOM
M  V30 1 O 0.0 0.0 0.0 0
M  V30 2 C 1.2229 0.8735 0.0 0
M  V30 3 C 2.4458 0.1478 0.0 0
M  V30 4 C 3.6687 1.0213 0.0 0
M  V30 5 C 4.8916 0.2956 0.0 0
M  V30 6 C 6.1145 1.1691 0.0 0
M  V30 7 C 7.3375 0.4434 0.0 0
M  V30 8 C 5.9802 2.8893 0.0 0
M  V30 END ATOM
M  V30 BEGIN BOND
M  V30 1 2 1 2
M  V30 2 1 2 3
M  V30 3 1 3 4
M  V30 4 1 4 5
M  V30 5 1 5 6
M  V30 6 1 6 7
M  V30 7 1 6 8
M  V30 END BOND
M  V30 END CTAB
M  END
>  <Molecule Name>
5-methylhexanal

>  <Molecule Name 2>
5-methylhexanal

>  <Database>
Essential Oil Database

>  <InChI>
InChI=1S/C7H14O/c1-7(2)5-3-4-6-8/h6-7H,3-5H2,1-2H3

>  <InChI-Key>
GEKRISJWBAIIAA-UHFFFAOYSA-N

>  <Smiles>
CC(C)CCCC=O

>  <Molecular Formula>
C7H14O

$$$$
(e)-9-eicosene
Actelion Java MolfileCreator 2.0

  0  0  0  0  0  0              0 V3000
M  V30 BEGIN CTAB
M  V30 COUNTS 20 19 0 0 0
M  V30 BEGIN ATOM
M  V30 1 C 0.0 0.0 0.0 0
M  V30 2 C -0.1271 1.6272 0.0 0
M  V30 3 C 1.1568 -0.6864 0.0 0
M  V30 4 C -1.5382 2.4535 0.0 0
M  V30 5 C 2.3137 0.1271 0.0 0
M  V30 6 C -1.6653 4.0808 0.0 0
M  V30 7 C 3.4706 -0.5593 0.0 0
M  V30 8 C -3.0765 4.9071 0.0 0
M  V30 9 C 4.6275 0.2542 0.0 0
M  V30 10 C -3.2036 6.5344 0.0 0
M  V30 11 C 5.7843 -0.4322 0.0 0
M  V30 12 C -4.6147 7.3607 0.0 0
M  V30 13 C 6.9412 0.3813 0.0 0
M  V30 14 C -4.7419 8.988 0.0 0
M  V30 15 C 8.0981 -0.3051 0.0 0
M  V30 16 C -6.153 9.8143 0.0 0
M  V30 17 C 9.255 0.5085 0.0 0
M  V30 18 C -6.2801 11.4416 0.0 0
M  V30 19 C 10.4118 -0.1779 0.0 0
M  V30 20 C 11.5687 0.6356 0.0 0
M  V30 END ATOM
M  V30 BEGIN BOND
M  V30 1 2 1 2
M  V30 2 1 1 3
M  V30 3 1 2 4
M  V30 4 1 3 5
M  V30 5 1 4 6
M  V30 6 1 5 7
M  V30 7 1 6 8
M  V30 8 1 7 9
M  V30 9 1 8 10
M  V30 10 1 9 11
M  V30 11 1 10 12
M  V30 12 1 11 13
M  V30 13 1 12 14
M  V30 14 1 13 15
M  V30 15 1 14 16
M  V30 16 1 15 17
M  V30 17 1 16 18
M  V30 18 1 17 19
M  V30 19 1 19 20
M  V30 END BOND
M  V30 END CTAB
M  END
>  <Molecule Name>
(e)-9-eicosene

>  <Molecule Name 2>
(e)-9-eicosene

>  <Database>
Essential Oil Database

>  <InChI>
InChI=1S/C20H40/c1-3-5-7-9-11-13-15-17-19-20-18-16-14-12-10-8-6-4-2/h17,19H,3-16,18,20H2,1-2H3/b19-17+

>  <InChI-Key>
UVLKUUBSZXVVDZ-HTXNQAPBSA-N

>  <Smiles>
CCCCCCCCCC/C=C/CCCCCCCC

>  <Molecular Formula>
C20H40

$$$$
ethyl tridecanoate
Actelion Java MolfileCreator 2.0

  0  0  0  0  0  0              0 V3000
M  V30 BEGIN CTAB
M  V30 COUNTS 17 16 0 0 0
M  V30 BEGIN ATOM
M  V30 1 O 0.0 0.0 0.0 0
M  V30 2 C -0.1218 1.5591 0.0 0
M  V30 3 O 0.9866 2.3509 0.0 0
M  V30 4 C -1.4738 2.3509 0.0 0
M  V30 5 C 2.0951 1.6931 0.0 0
M  V30 6 C -2.8259 1.6931 0.0 0
M  V30 7 C 3.2036 2.4849 0.0 0
M  V30 8 C -4.178 2.4849 0.0 0
M  V30 9 C -5.5301 1.8271 0.0 0
M  V30 10 C -6.8822 2.6189 0.0 0
M  V30 11 C -8.2343 1.9611 0.0 0
M  V30 12 C -9.5864 2.7529 0.0 0
M  V30 13 C -10.9385 2.0951 0.0 0
M  V30 14 C -12.2906 2.8868 0.0 0
M  V30 15 C -13.6427 2.2291 0.0 0
M  V30 16 C -14.9947 3.0208 0.0 0
M  V30 17 C -16.3468 2.3631 0.0 0
M  V30 END ATOM
M  V30 BEGIN BOND
M  V30 1 2 1 2
M  V30 2 1 2 3
M  V30 3 1 2 4
M  V30 4 1 3 5
M  V30 5 1 4 6
M  V30 6 1 5 7
M  V30 7 1 6 8
M  V30 8 1 8 9
M  V30 9 1 9 10
M  V30 10 1 10 11
M  V30 11 1 11 12
M  V30 12 1 12 13
M  V30 13 1 13 14
M  V30 14 1 14 15
M  V30 15 1 15 16
M  V30 16 1 16 17
M  V30 END BOND
M  V30 END CTAB
M  END
>  <Molecule Name>
ethyl tridecanoate

>  <Molecule Name 2>
ethyl tridecanoate

>  <Database>
Essential Oil Database

>  <InChI>
InChI=1S/C15H30O2/c1-3-5-6-7-8-9-10-11-12-13-14-15(16)17-4-2/h3-14H2,1-2H3

>  <InChI-Key>
QJYYMNOTJXIOBP-UHFFFAOYSA-N

>  <Smiles>
CCCCCCCCCCCCC(OCC)=O

>  <Molecular Formula>
C15H30O2

$$$$
ethyl undecanoate
Actelion Java MolfileCreator 2.0

  0  0  0  0  0  0              0 V3000
M  V30 BEGIN CTAB
M  V30 COUNTS 15 14 0 0 0
M  V30 BEGIN ATOM
M  V30 1 O 0.0 0.0 0.0 0
M  V30 2 C -0.1224 1.5668 0.0 0
M  V30 3 O 0.9915 2.3625 0.0 0
M  V30 4 C -1.4811 2.3625 0.0 0
M  V30 5 C 2.1054 1.7137 0.0 0
M  V30 6 C -2.8399 1.7137 0.0 0
M  V30 7 C 3.2194 2.5094 0.0 0
M  V30 8 C -4.1986 2.5094 0.0 0
M  V30 9 C -5.5574 1.8606 0.0 0
M  V30 10 C -6.9162 2.6563 0.0 0
M  V30 11 C -8.2749 2.0075 0.0 0
M  V30 12 C -9.6337 2.8032 0.0 0
M  V30 13 C -10.9924 2.1544 0.0 0
M  V30 14 C -12.3512 2.95 0.0 0
M  V30 15 C -13.7099 2.3013 0.0 0
M  V30 END ATOM
M  V30 BEGIN BOND
M  V30 1 2 1 2
M  V30 2 1 2 3
M  V30 3 1 2 4
M  V30 4 1 3 5
M  V30 5 1 4 6
M  V30 6 1 5 7
M  V30 7 1 6 8
M  V30 8 1 8 9
M  V30 9 1 9 10
M  V30 10 1 10 11
M  V30 11 1 11 12
M  V30 12 1 12 13
M  V30 13 1 13 14
M  V30 14 1 14 15
M  V30 END BOND
M  V30 END CTAB
M  END
>  <Molecule Name>
ethyl undecanoate

>  <Molecule Name 2>
ethyl undecanoate

>  <Database>
Essential Oil Database

>  <InChI>
InChI=1S/C13H26O2/c1-3-5-6-7-8-9-10-11-12-13(14)15-4-2/h3-12H2,1-2H3

>  <InChI-Key>
IAFQYUQIAOWKSB-UHFFFAOYSA-N

>  <Smiles>
CCCCCCCCCCC(OCC)=O

>  <Molecular Formula>
C13H26O2

$$$$
guaiazulene
Actelion Java MolfileCreator 2.0

  0  0  0  0  0  0              0 V3000
M  V30 BEGIN CTAB
M  V30 COUNTS 15 16 0 0 0
M  V30 BEGIN ATOM
M  V30 1 C 0.0 0.0 0.0 0
M  V30 2 C -1.527 -0.2199 0.0 0
M  V30 3 C 0.5497 1.4049 0.0 0
M  V30 4 C 0.7452 -0.9773 0.0 0
M  V30 5 C -2.7487 0.7574 0.0 0
M  V30 6 C -0.2321 2.8098 0.0 0
M  V30 7 C 2.0524 -0.623 0.0 0
M  V30 8 C 0.061 -2.1867 0.0 0
M  V30 9 C -2.8709 2.3211 0.0 0
M  V30 10 C -4.2391 0.4031 0.0 0
M  V30 11 C -1.7592 3.274 0.0 0
M  V30 12 C -4.3613 2.9197 0.0 0
M  V30 13 C -5.1676 1.6736 0.0 0
M  V30 14 C -4.8378 -0.8429 0.0 0
M  V30 15 C -2.2234 4.8011 0.0 0
M  V30 END ATOM
M  V30 BEGIN BOND
M  V30 1 2 1 2
M  V30 2 1 1 3
M  V30 3 1 1 4
M  V30 4 1 2 5
M  V30 5 2 3 6
M  V30 6 1 4 7
M  V30 7 1 4 8
M  V30 8 1 5 9
M  V30 9 2 5 10
M  V30 10 1 6 11
M  V30 11 1 9 12
M  V30 12 1 10 13
M  V30 13 1 10 14
M  V30 14 1 11 15
M  V30 15 2 9 11
M  V30 16 2 12 13
M  V30 END BOND
M  V30 END CTAB
M  END
>  <Molecule Name>
guaiazulene

>  <Molecule Name 2>
guaiazulene

>  <Database>
Essential Oil Database

>  <InChI>
InChI=1S/C15H18/c1-10(2)13-7-5-11(3)14-8-6-12(4)15(14)9-13/h5-10H,1-4H3

>  <InChI-Key>
FWKQNCXZGNBPFD-UHFFFAOYSA-N

>  <Smiles>
CC(C)C1=CC2=C(C)C=CC2=C(C)C=C1

>  <Molecular Formula>
C15H18

$$$$
(z)-2-hexenol
Actelion Java MolfileCreator 2.0

  0  0  0  0  0  0              0 V3000
M  V30 BEGIN CTAB
M  V30 COUNTS 7 6 0 0 0
M  V30 BEGIN ATOM
M  V30 1 O 0.0 0.0 0.0 0
M  V30 2 C -1.5596 0.1218 0.0 0
M  V30 3 C -2.3516 1.4743 0.0 0
M  V30 4 C -3.9112 1.5961 0.0 0
M  V30 5 C -4.7154 0.4873 0.0 0
M  V30 6 C -6.2751 0.6092 0.0 0
M  V30 7 C -7.0793 -0.4995 0.0 0
M  V30 END ATOM
M  V30 BEGIN BOND
M  V30 1 1 1 2
M  V30 2 1 2 3
M  V30 3 2 3 4
M  V30 4 1 4 5
M  V30 5 1 5 6
M  V30 6 1 6 7
M  V30 END BOND
M  V30 END CTAB
M  END
>  <Molecule Name>
(z)-2-hexenol

>  <Molecule Name 2>
(z)-2-hexenol

>  <Database>
Essential Oil Database

>  <InChI>
InChI=1S/C6H12O/c1-2-3-4-5-6-7/h4-5,7H,2-3,6H2,1H3/b5-4-

>  <InChI-Key>
ZCHHRLHTBGRGOT-PLNGDYQASA-N

>  <Smiles>
CCC/C=C\CO

>  <Molecular Formula>
C6H12O

$$$$
1,2-benzenedicarboxylic acid
Actelion Java MolfileCreator 2.0

  0  0  0  0  0  0              0 V3000
M  V30 BEGIN CTAB
M  V30 COUNTS 12 12 0 0 0
M  V30 BEGIN ATOM
M  V30 1 O 0.0 0.0 0.0 0
M  V30 2 C -0.126 -1.3614 0.0 0
M  V30 3 O 1.021 -2.0295 0.0 0
M  V30 4 C -1.5252 -2.0295 0.0 0
M  V30 5 C -2.9245 -1.1975 0.0 0
M  V30 6 C -1.6513 -3.3909 0.0 0
M  V30 7 C -3.0505 0.4159 0.0 0
M  V30 8 C -4.3237 -1.8656 0.0 0
M  V30 9 C -3.0505 -4.059 0.0 0
M  V30 10 O -1.9034 1.2479 0.0 0
M  V30 11 O -4.4497 1.2479 0.0 0
M  V30 12 C -4.4497 -3.227 0.0 0
M  V30 END ATOM
M  V30 BEGIN BOND
M  V30 1 2 1 2
M  V30 2 1 2 3
M  V30 3 1 2 4
M  V30 4 2 4 5
M  V30 5 1 4 6
M  V30 6 1 5 7
M  V30 7 1 5 8
M  V30 8 2 6 9
M  V30 9 2 7 10
M  V30 10 1 7 11
M  V30 11 2 8 12
M  V30 12 1 9 12
M  V30 END BOND
M  V30 END CTAB
M  END
>  <Molecule Name>
1,2-benzenedicarboxylic acid

>  <Molecule Name 2>
1,2-benzenedicarboxylic acid

>  <Database>
Essential Oil Database

>  <InChI>
InChI=1S/C8H6O4/c9-7(10)5-3-1-2-4-6(5)8(11)12/h1-4H,(H,9,10)(H,11,12)

>  <InChI-Key>
XNGIFLGASWRNHJ-UHFFFAOYSA-N

>  <Smiles>
OC(c(cccc1)c1C(O)=O)=O

>  <Molecular Formula>
C8H6O4

$$$$
menthyl salicylate
Actelion Java MolfileCreator 2.0

  0  0  0  0  0  0              0 V3000
M  V30 BEGIN CTAB
M  V30 COUNTS 20 21 0 0 0
M  V30 BEGIN ATOM
M  V30 1 O 0.0 0.0 0.0 0
M  V30 2 C 1.1709 -0.6948 0.0 0
M  V30 3 O 2.3418 0.1286 0.0 0
M  V30 4 C 1.0422 -2.0845 0.0 0
M  V30 5 C 2.2132 1.7757 0.0 0
M  V30 6 C -0.386 -2.7665 0.0 0
M  V30 7 C 2.2132 -2.7665 0.0 0
M  V30 8 C 3.3841 2.612 0.0 0
M  V30 9 C 0.7849 2.612 0.0 0
M  V30 10 O -1.8143 -1.9301 0.0 0
M  V30 11 C -0.5146 -4.1561 0.0 0
M  V30 12 C 2.0845 -4.1561 0.0 0
M  V30 13 C 4.555 1.9301 0.0 0
M  V30 14 C 3.2554 4.2591 0.0 0
M  V30 15 C 0.6562 4.2591 0.0 0
M  V30 16 C 0.6562 -4.8381 0.0 0
M  V30 17 C 4.4264 0.5404 0.0 0
M  V30 18 C 5.726 2.7665 0.0 0
M  V30 19 C 1.8271 5.0955 0.0 0
M  V30 20 C -0.772 5.0955 0.0 0
M  V30 END ATOM
M  V30 BEGIN BOND
M  V30 1 2 1 2
M  V30 2 1 2 3
M  V30 3 1 2 4
M  V30 4 1 3 5
M  V30 5 2 4 6
M  V30 6 1 4 7
M  V30 7 1 5 8
M  V30 8 1 5 9
M  V30 9 1 6 10
M  V30 10 1 6 11
M  V30 11 2 7 12
M  V30 12 1 8 13
M  V30 13 1 8 14
M  V30 14 1 9 15
M  V30 15 2 11 16
M  V30 16 1 13 17
M  V30 17 1 13 18
M  V30 18 1 14 19
M  V30 19 1 15 20
M  V30 20 1 12 16
M  V30 21 1 15 19
M  V30 END BOND
M  V30 END CTAB
M  END
>  <Molecule Name>
menthyl salicylate

>  <Molecule Name 2>
menthyl salicylate

>  <Database>
Essential Oil Database

>  <InChI>
InChI=1S/C17H24O3/c1-11(2)13-9-8-12(3)10-16(13)20-17(19)14-6-4-5-7-15(14)18/h4-7,11-13,16,18H,8-10H2,1-3H3

>  <InChI-Key>
SJOXEWUZWQYCGL-UHFFFAOYSA-N

>  <Smiles>
CC(C)C(CCC(C)C1)C1OC(c(cccc1)c1O)=O

>  <Molecular Formula>
C17H24O3

$$$$
8-heptadecene
Actelion Java MolfileCreator 2.0

  0  0  0  0  0  0              0 V3000
M  V30 BEGIN CTAB
M  V30 COUNTS 17 16 0 0 0
M  V30 BEGIN ATOM
M  V30 1 C 0.0 0.0 0.0 0
M  V30 2 C -0.1263 1.6175 0.0 0
M  V30 3 C 1.1499 -0.6824 0.0 0
M  V30 4 C -1.529 2.4389 0.0 0
M  V30 5 C 2.2999 0.139 0.0 0
M  V30 6 C -1.6554 4.0564 0.0 0
M  V30 7 C 3.4499 -0.5307 0.0 0
M  V30 8 C -3.0581 4.8905 0.0 0
M  V30 9 C 4.5998 0.2906 0.0 0
M  V30 10 C -3.1845 6.508 0.0 0
M  V30 11 C 5.7498 -0.3917 0.0 0
M  V30 12 C -4.5872 7.3294 0.0 0
M  V30 13 C 6.8998 0.4296 0.0 0
M  V30 14 C -4.7136 8.947 0.0 0
M  V30 15 C 8.0497 -0.2527 0.0 0
M  V30 16 C -6.1163 9.781 0.0 0
M  V30 17 C 9.1997 0.5686 0.0 0
M  V30 END ATOM
M  V30 BEGIN BOND
M  V30 1 2 1 2
M  V30 2 1 1 3
M  V30 3 1 2 4
M  V30 4 1 3 5
M  V30 5 1 4 6
M  V30 6 1 5 7
M  V30 7 1 6 8
M  V30 8 1 7 9
M  V30 9 1 8 10
M  V30 10 1 9 11
M  V30 11 1 10 12
M  V30 12 1 11 13
M  V30 13 1 12 14
M  V30 14 1 13 15
M  V30 15 1 14 16
M  V30 16 1 15 17
M  V30 END BOND
M  V30 END CTAB
M  END
>  <Molecule Name>
8-heptadecene

>  <Molecule Name 2>
8-heptadecene

>  <Database>
Essential Oil Database

>  <InChI>
InChI=1S/C17H34/c1-3-5-7-9-11-13-15-17-16-14-12-10-8-6-4-2/h15,17H,3-14,16H2,1-2H3/b17-15+

>  <InChI-Key>
BIQKRILZMDQPHI-BMRADRMJSA-N

>  <Smiles>
CCCCCCCC/C=C/CCCCCCC

>  <Molecular Formula>
C17H34

$$$$
9-octadecene
Actelion Java MolfileCreator 2.0

  0  0  0  0  0  0              0 V3000
M  V30 BEGIN CTAB
M  V30 COUNTS 18 17 0 0 0
M  V30 BEGIN ATOM
M  V30 1 C 0.0 0.0 0.0 0
M  V30 2 C -0.1271 -1.3732 0.0 0
M  V30 3 C -1.4113 0.8137 0.0 0
M  V30 4 C 1.0299 -2.0598 0.0 0
M  V30 5 C -1.5385 2.4413 0.0 0
M  V30 6 C 2.187 -1.2333 0.0 0
M  V30 7 C -2.9499 3.2678 0.0 0
M  V30 8 C 3.344 -1.9199 0.0 0
M  V30 9 C -3.077 4.8953 0.0 0
M  V30 10 C 4.5011 -1.1062 0.0 0
M  V30 11 C -4.4884 5.7218 0.0 0
M  V30 12 C 5.6582 -1.7928 0.0 0
M  V30 13 C -4.6156 7.3493 0.0 0
M  V30 14 C 6.8153 -0.979 0.0 0
M  V30 15 C -6.027 8.1758 0.0 0
M  V30 16 C 7.9724 -1.6656 0.0 0
M  V30 17 C -6.1541 9.8034 0.0 0
M  V30 18 C 9.1295 -0.8392 0.0 0
M  V30 END ATOM
M  V30 BEGIN BOND
M  V30 1 2 1 2
M  V30 2 1 1 3
M  V30 3 1 2 4
M  V30 4 1 3 5
M  V30 5 1 4 6
M  V30 6 1 5 7
M  V30 7 1 6 8
M  V30 8 1 7 9
M  V30 9 1 8 10
M  V30 10 1 9 11
M  V30 11 1 10 12
M  V30 12 1 11 13
M  V30 13 1 12 14
M  V30 14 1 13 15
M  V30 15 1 14 16
M  V30 16 1 15 17
M  V30 17 1 16 18
M  V30 END BOND
M  V30 END CTAB
M  END
>  <Molecule Name>
9-octadecene

>  <Molecule Name 2>
9-octadecene

>  <Database>
Essential Oil Database

>  <InChI>
InChI=1S/C18H36/c1-3-5-7-9-11-13-15-17-18-16-14-12-10-8-6-4-2/h17-18H,3-16H2,1-2H3/b18-17+

>  <InChI-Key>
HSNQNPCNYIJJHT-ISLYRVAYSA-N

>  <Smiles>
CCCCCCCC/C=C/CCCCCCCC

>  <Molecular Formula>
C18H36

$$$$
2-methoxy-4,5-methylenedioxypropiophenone
Actelion Java MolfileCreator 2.0

  0  0  0  0  0  0              0 V3000
M  V30 BEGIN CTAB
M  V30 COUNTS 15 16 0 0 0
M  V30 BEGIN ATOM
M  V30 1 O 0.0 0.0 0.0 0
M  V30 2 C -0.1211 1.5502 0.0 0
M  V30 3 C -1.4654 2.3375 0.0 0
M  V30 4 C 0.981 2.3375 0.0 0 CFG=1
M  V30 5 C -2.8098 1.6955 0.0 0
M  V30 6 C -1.5865 3.8877 0.0 0
M  V30 7 O 2.0831 1.6955 0.0 0
M  V30 8 C 0.8599 3.8877 0.0 0
M  V30 9 C -4.1542 2.4828 0.0 0
M  V30 10 C -2.9309 4.675 0.0 0
M  V30 11 C 3.1852 2.4828 0.0 0
M  V30 12 O -5.6318 2.1316 0.0 0
M  V30 13 C -4.2753 4.033 0.0 0
M  V30 14 C -6.5522 3.3911 0.0 0
M  V30 15 O -5.7529 4.6265 0.0 0
M  V30 END ATOM
M  V30 BEGIN BOND
M  V30 1 2 1 2
M  V30 2 1 2 3
M  V30 3 1 2 4
M  V30 4 2 3 5
M  V30 5 1 3 6
M  V30 6 1 4 7
M  V30 7 1 4 8 CFG=3
M  V30 8 1 5 9
M  V30 9 2 6 10
M  V30 10 1 7 11
M  V30 11 1 9 12
M  V30 12 2 9 13
M  V30 13 1 12 14
M  V30 14 1 13 15
M  V30 15 1 10 13
M  V30 16 1 14 15
M  V30 END BOND
M  V30 BEGIN COLLECTION
M  V30 MDLV30/STERAC1 ATOMS=(1 4)
M  V30 END COLLECTION
M  V30 END CTAB
M  END
>  <Molecule Name>
2-methoxy-4,5-methylenedioxypropiophenone

>  <Molecule Name 2>
2-methoxy-4,5-methylenedioxypropiophenone

>  <Database>
Essential Oil Database

>  <InChI>
InChI=1S/C11H12O4/c1-7(13-2)11(12)8-3-4-9-10(5-8)15-6-14-9/h3-5,7H,6H2,1-2H3/t7-/m0/s1

>  <InChI-Key>
JPDXGEQQFZUUOQ-ZETCQYMHSA-N

>  <Smiles>
CC(C(c(cc1)cc2c1OCO2)=O)OC

>  <Molecular Formula>
C11H12O4

$$$$
linalol
Actelion Java MolfileCreator 2.0

  0  0  0  0  0  0              0 V3000
M  V30 BEGIN CTAB
M  V30 COUNTS 10 9 0 0 0
M  V30 BEGIN ATOM
M  V30 1 C 0.0 0.0 0.0 0
M  V30 2 C 1.1933 -0.695 0.0 0
M  V30 3 C -1.4556 -0.695 0.0 0
M  V30 4 C -0.1311 1.6785 0.0 0
M  V30 5 C 2.3866 0.1442 0.0 0
M  V30 6 C 3.58 -0.5507 0.0 0
M  V30 7 C 4.7733 0.2884 0.0 0 CFG=1
M  V30 8 C 5.9666 -0.4065 0.0 0
M  V30 9 C 4.6422 1.967 0.0 0
M  V30 10 C 7.16 0.4327 0.0 0
M  V30 END ATOM
M  V30 BEGIN BOND
M  V30 1 2 1 2
M  V30 2 1 1 3
M  V30 3 1 1 4
M  V30 4 1 2 5
M  V30 5 1 5 6
M  V30 6 1 6 7
M  V30 7 1 7 8
M  V30 8 1 7 9 CFG=3
M  V30 9 2 8 10
M  V30 END BOND
M  V30 BEGIN COLLECTION
M  V30 MDLV30/STERAC1 ATOMS=(1 7)
M  V30 END COLLECTION
M  V30 END CTAB
M  END
>  <Molecule Name>
linalol

>  <Molecule Name 2>
linalol

>  <Database>
Essential Oil Database

>  <InChI>
InChI=1S/C10H18/c1-5-10(4)8-6-7-9(2)3/h5,7,10H,1,6,8H2,2-4H3/t10-/m1/s1

>  <InChI-Key>
FUDNBFMOXDUIIE-SNVBAGLBSA-N

>  <Smiles>
CC(CCC=C(C)C)C=C

>  <Molecular Formula>
C10H18

$$$$
beta-vetivone
Actelion Java MolfileCreator 2.0

  0  0  0  0  0  0              0 V3000
M  V30 BEGIN CTAB
M  V30 COUNTS 16 17 0 0 0
M  V30 BEGIN ATOM
M  V30 1 O 0.0 0.0 0.0 0
M  V30 2 C -1.5574 0.1216 0.0 0
M  V30 3 C -2.3484 -0.9856 0.0 0
M  V30 4 C -2.3484 1.4723 0.0 0
M  V30 5 C -3.9059 -0.8639 0.0 0
M  V30 6 C -3.9059 1.594 0.0 0 CFG=1
M  V30 7 C -4.6968 0.4867 0.0 0 CFG=2
M  V30 8 C -4.6968 -1.9712 0.0 0
M  V30 9 C -4.6968 2.9446 0.0 0
M  V30 10 C -5.6215 1.7521 0.0 0
M  V30 11 C -5.6215 -0.5353 0.0 0
M  V30 12 C -7.106 1.3993 0.0 0
M  V30 13 C -7.106 0.0608 0.0 0
M  V30 14 C -8.3715 2.324 0.0 0
M  V30 15 C -9.7951 1.813 0.0 0
M  V30 16 C -8.335 3.8694 0.0 0
M  V30 END ATOM
M  V30 BEGIN BOND
M  V30 1 2 1 2
M  V30 2 1 2 3
M  V30 3 1 2 4
M  V30 4 2 3 5
M  V30 5 1 4 6
M  V30 6 1 7 5 CFG=1
M  V30 7 1 5 8
M  V30 8 1 6 9 CFG=1
M  V30 9 1 7 10
M  V30 10 1 7 11
M  V30 11 1 10 12
M  V30 12 1 11 13
M  V30 13 2 12 14
M  V30 14 1 14 15
M  V30 15 1 14 16
M  V30 16 1 6 7
M  V30 17 1 12 13
M  V30 END BOND
M  V30 BEGIN COLLECTION
M  V30 MDLV30/STERAC1 ATOMS=(2 6 7)
M  V30 END COLLECTION
M  V30 END CTAB
M  END
>  <Molecule Name>
beta-vetivone

>  <Molecule Name 2>
beta-vetivone

>  <Database>
Essential Oil Database

>  <InChI>
InChI=1S/C15H22O/c1-10(2)13-5-6-15(9-13)11(3)7-14(16)8-12(15)4/h7,12H,5-6,8-9H2,1-4H3/t12-,15+/m0/s1

>  <InChI-Key>
ISLOGSAEQNKPGG-SWLSCSKDSA-N

>  <Smiles>
C[C@@H](C1)[C@](CC2)(CC2=C(C)C)C(C)=CC1=O

>  <Molecular Formula>
C15H22O

$$$$
butyl decanoate
Actelion Java MolfileCreator 2.0

  0  0  0  0  0  0              0 V3000
M  V30 BEGIN CTAB
M  V30 COUNTS 16 15 0 0 0
M  V30 BEGIN ATOM
M  V30 1 O 0.0 0.0 0.0 0
M  V30 2 C -0.1239 1.5862 0.0 0
M  V30 3 O 1.0037 2.4041 0.0 0
M  V30 4 C -1.4994 2.4041 0.0 0
M  V30 5 C 2.1314 1.7349 0.0 0
M  V30 6 C -2.875 1.7349 0.0 0
M  V30 7 C 3.2592 2.5528 0.0 0
M  V30 8 C -4.2506 2.5528 0.0 0
M  V30 9 C 4.3869 1.8836 0.0 0
M  V30 10 C -5.6261 1.8836 0.0 0
M  V30 11 C 5.5146 2.6891 0.0 0
M  V30 12 C -7.0017 2.6891 0.0 0
M  V30 13 C -8.3772 2.0199 0.0 0
M  V30 14 C -9.7528 2.8378 0.0 0
M  V30 15 C -11.1284 2.1686 0.0 0
M  V30 16 C -12.5039 2.9865 0.0 0
M  V30 END ATOM
M  V30 BEGIN BOND
M  V30 1 2 1 2
M  V30 2 1 2 3
M  V30 3 1 2 4
M  V30 4 1 3 5
M  V30 5 1 4 6
M  V30 6 1 5 7
M  V30 7 1 6 8
M  V30 8 1 7 9
M  V30 9 1 8 10
M  V30 10 1 9 11
M  V30 11 1 10 12
M  V30 12 1 12 13
M  V30 13 1 13 14
M  V30 14 1 14 15
M  V30 15 1 15 16
M  V30 END BOND
M  V30 END CTAB
M  END
>  <Molecule Name>
butyl decanoate

>  <Molecule Name 2>
butyl decanoate

>  <Database>
Essential Oil Database

>  <InChI>
InChI=1S/C14H28O2/c1-3-5-7-8-9-10-11-12-14(15)16-13-6-4-2/h3-13H2,1-2H3

>  <InChI-Key>
ZRNCNTSXSYXHOW-UHFFFAOYSA-N

>  <Smiles>
CCCCCCCCCC(OCCCC)=O

>  <Molecular Formula>
C14H28O2

$$$$
nootkatol
Actelion Java MolfileCreator 2.0

  0  0  0  0  0  0              0 V3000
M  V30 BEGIN CTAB
M  V30 COUNTS 16 17 0 0 0
M  V30 BEGIN ATOM
M  V30 1 O 0.0 0.0 0.0 0
M  V30 2 C 1.2804 -0.6226 0.0 0 CFG=2
M  V30 3 C 2.5609 0.3289 0.0 0
M  V30 4 C 1.163 -2.1028 0.0 0
M  V30 5 C 3.8414 -0.2936 0.0 0
M  V30 6 C 2.4434 -2.7489 0.0 0 CFG=2
M  V30 7 C 3.7239 -1.7738 0.0 0 CFG=2
M  V30 8 C 5.1219 0.6578 0.0 0
M  V30 9 C 2.326 -4.2291 0.0 0
M  V30 10 C 5.0044 -2.42 0.0 0
M  V30 11 C 3.6065 -3.254 0.0 0
M  V30 12 C 6.4024 0.0352 0.0 0
M  V30 13 C 6.2849 -1.4567 0.0 0 CFG=1
M  V30 14 C 7.5654 -2.1028 0.0 0
M  V30 15 C 7.4479 -3.583 0.0 0
M  V30 16 C 8.8459 -1.1395 0.0 0
M  V30 END ATOM
M  V30 BEGIN BOND
M  V30 1 1 2 1 CFG=3
M  V30 2 1 2 3
M  V30 3 1 2 4
M  V30 4 2 3 5
M  V30 5 1 4 6
M  V30 6 1 5 7
M  V30 7 1 5 8
M  V30 8 1 6 9 CFG=3
M  V30 9 1 7 10
M  V30 10 1 7 11 CFG=3
M  V30 11 1 8 12
M  V30 12 1 10 13
M  V30 13 1 13 14 CFG=1
M  V30 14 2 14 15
M  V30 15 1 14 16
M  V30 16 1 6 7
M  V30 17 1 12 13
M  V30 END BOND
M  V30 BEGIN COLLECTION
M  V30 MDLV30/STERAC1 ATOMS=(4 2 6 7 13)
M  V30 END COLLECTION
M  V30 END CTAB
M  END
>  <Molecule Name>
nootkatol

>  <Molecule Name 2>
nootkatol

>  <Database>
Essential Oil Database

>  <InChI>
InChI=1S/C15H24O/c1-10(2)12-5-6-13-8-14(16)7-11(3)15(13,4)9-12/h8,11-12,14,16H,1,5-7,9H2,2-4H3/t11-,12-,14+,15+/m1/s1

>  <InChI-Key>
GFNWRKNVTHDNPV-UXOAXIEHSA-N

>  <Smiles>
C[C@H](C1)[C@](C)(C[C@@H](CC2)C(C)=C)C2=C[C@H]1O

>  <Molecular Formula>
C15H24O

$$$$
alpha-vetivone
Actelion Java MolfileCreator 2.0

  0  0  0  0  0  0              0 V3000
M  V30 BEGIN CTAB
M  V30 COUNTS 16 17 0 0 0
M  V30 BEGIN ATOM
M  V30 1 O 0.0 0.0 0.0 0
M  V30 2 C 1.2804 -0.6226 0.0 0
M  V30 3 C 2.5609 0.3289 0.0 0
M  V30 4 C 1.163 -2.1028 0.0 0
M  V30 5 C 3.8414 -0.2936 0.0 0
M  V30 6 C 2.4434 -2.7489 0.0 0 CFG=2
M  V30 7 C 3.7239 -1.7738 0.0 0 CFG=2
M  V30 8 C 5.1219 0.6578 0.0 0
M  V30 9 C 2.326 -4.2291 0.0 0
M  V30 10 C 5.0044 -2.42 0.0 0
M  V30 11 C 3.6065 -3.254 0.0 0
M  V30 12 C 6.4024 0.0352 0.0 0
M  V30 13 C 6.2849 -1.4567 0.0 0
M  V30 14 C 7.5654 -2.1028 0.0 0
M  V30 15 C 8.8459 -1.1395 0.0 0
M  V30 16 C 7.4479 -3.583 0.0 0
M  V30 END ATOM
M  V30 BEGIN BOND
M  V30 1 2 1 2
M  V30 2 1 2 3
M  V30 3 1 2 4
M  V30 4 2 3 5
M  V30 5 1 4 6
M  V30 6 1 5 7
M  V30 7 1 5 8
M  V30 8 1 6 9 CFG=3
M  V30 9 1 7 10
M  V30 10 1 7 11 CFG=3
M  V30 11 1 8 12
M  V30 12 1 10 13
M  V30 13 2 13 14
M  V30 14 1 14 15
M  V30 15 1 14 16
M  V30 16 1 6 7
M  V30 17 1 12 13
M  V30 END BOND
M  V30 BEGIN COLLECTION
M  V30 MDLV30/STERAC1 ATOMS=(2 6 7)
M  V30 END COLLECTION
M  V30 END CTAB
M  END
>  <Molecule Name>
alpha-vetivone

>  <Molecule Name 2>
alpha-vetivone

>  <Database>
Essential Oil Database

>  <InChI>
InChI=1S/C15H22O/c1-10(2)12-5-6-13-8-14(16)7-11(3)15(13,4)9-12/h8,11H,5-7,9H2,1-4H3/t11-,15+/m1/s1

>  <InChI-Key>
NIIPDXITZPFFTE-ABAIWWIYSA-N

>  <Smiles>
C[C@H](C1)[C@](C)(CC(CC2)=C(C)C)C2=CC1=O

>  <Molecular Formula>
C15H22O

$$$$
khusimol
Actelion Java MolfileCreator 2.0

  0  0  0  0  0  0              0 V3000
M  V30 BEGIN CTAB
M  V30 COUNTS 16 18 0 0 0
M  V30 BEGIN ATOM
M  V30 1 O 0.0 0.0 0.0 0
M  V30 2 C 1.2855 -0.4871 0.0 0
M  V30 3 C 1.3802 -1.8673 0.0 0 CFG=2
M  V30 4 C 0.1082 -2.7604 0.0 0 CFG=1
M  V30 5 C 2.6251 -2.4763 0.0 0
M  V30 6 C 0.8524 -4.0459 0.0 0 CFG=2
M  V30 7 C -1.0554 -3.4641 0.0 0
M  V30 8 C -1.3667 -1.6779 0.0 0
M  V30 9 C 2.2597 -3.87 0.0 0
M  V30 10 C -0.027 -5.345 0.0 0
M  V30 11 C -2.368 -4.0595 0.0 0 CFG=1
M  V30 12 C -2.8551 -2.4627 0.0 0
M  V30 13 C 0.6901 -6.5087 0.0 0
M  V30 14 C -1.7591 -5.1826 0.0 0
M  V30 15 C -3.3423 -5.5885 0.0 0
M  V30 16 C -1.6238 -6.5628 0.0 0
M  V30 END ATOM
M  V30 BEGIN BOND
M  V30 1 1 1 2
M  V30 2 1 3 2 CFG=1
M  V30 3 1 3 4
M  V30 4 1 3 5
M  V30 5 1 4 6
M  V30 6 1 4 7 CFG=1
M  V30 7 1 4 8
M  V30 8 1 5 9
M  V30 9 1 6 10 CFG=3
M  V30 10 1 7 11
M  V30 11 1 8 12
M  V30 12 2 10 13
M  V30 13 1 10 14
M  V30 14 1 14 15
M  V30 15 1 14 16
M  V30 16 1 6 9
M  V30 17 1 11 12
M  V30 18 1 11 14 CFG=3
M  V30 END BOND
M  V30 BEGIN COLLECTION
M  V30 MDLV30/STERAC1 ATOMS=(4 3 4 6 11)
M  V30 END COLLECTION
M  V30 END CTAB
M  END
>  <Molecule Name>
khusimol

>  <Molecule Name 2>
khusimol

>  <Database>
Essential Oil Database

>  <InChI>
InChI=1S/C15H24O/c1-10-13-5-4-12(9-16)15(13)7-6-11(8-15)14(10,2)3/h11-13,16H,1,4-9H2,2-3H3/t11-,12-,13-,15+/m1/s1

>  <InChI-Key>
OOYRHNIVDZZGQV-BHPKHCPMSA-N

>  <Smiles>
CC(C)([C@H](CC1)C[C@@]11[C@@H]2CC[C@@H]1CO)C2=C

>  <Molecular Formula>
C15H24O

$$$$
isoelemicin
Actelion Java MolfileCreator 2.0

  0  0  0  0  0  0              0 V3000
M  V30 BEGIN CTAB
M  V30 COUNTS 15 15 0 0 0
M  V30 BEGIN ATOM
M  V30 1 O 0.0 0.0 0.0 0
M  V30 2 C 1.1989 -0.6982 0.0 0
M  V30 3 C -1.4624 -0.6982 0.0 0
M  V30 4 C 2.3978 0.1581 0.0 0
M  V30 5 C 1.0671 -2.1212 0.0 0
M  V30 6 O 2.2661 1.8445 0.0 0
M  V30 7 C 3.5968 -0.5401 0.0 0
M  V30 8 O -0.3952 -2.8194 0.0 0
M  V30 9 C 2.2661 -2.8194 0.0 0
M  V30 10 C 0.8036 2.7009 0.0 0
M  V30 11 C 3.465 -1.963 0.0 0
M  V30 12 C -1.8576 -1.963 0.0 0
M  V30 13 C 4.664 -2.6613 0.0 0
M  V30 14 C 4.5322 -4.0842 0.0 0
M  V30 15 C 5.7311 -4.7957 0.0 0
M  V30 END ATOM
M  V30 BEGIN BOND
M  V30 1 1 1 2
M  V30 2 1 1 3
M  V30 3 2 2 4
M  V30 4 1 2 5
M  V30 5 1 4 6
M  V30 6 1 4 7
M  V30 7 1 5 8
M  V30 8 2 5 9
M  V30 9 1 6 10
M  V30 10 2 7 11
M  V30 11 1 8 12
M  V30 12 1 11 13
M  V30 13 2 13 14
M  V30 14 1 14 15
M  V30 15 1 9 11
M  V30 END BOND
M  V30 END CTAB
M  END
>  <Molecule Name>
isoelemicin

>  <Molecule Name 2>
isoelemicin

>  <Database>
Essential Oil Database

>  <InChI>
InChI=1S/C12H16O3/c1-5-6-9-7-10(13-2)12(15-4)11(8-9)14-3/h5-8H,1-4H3/b6-5+

>  <InChI-Key>
RRXOQHQFJOQLQR-AATRIKPKSA-N

>  <Smiles>
C/C=C/c(cc1OC)cc(OC)c1OC

>  <Molecular Formula>
C12H16O3

$$$$
(z)-alpha-ionone
Actelion Java MolfileCreator 2.0

  0  0  0  0  0  0              0 V3000
M  V30 BEGIN CTAB
M  V30 COUNTS 14 14 0 0 0
M  V30 BEGIN ATOM
M  V30 1 O 0.0 0.0 0.0 0
M  V30 2 C -1.3615 0.7973 0.0 0
M  V30 3 C -1.4842 2.3674 0.0 0
M  V30 4 C -2.7231 0.1471 0.0 0
M  V30 5 C -2.8458 3.1769 0.0 0
M  V30 6 C -4.2073 2.5268 0.0 0 CFG=1
M  V30 7 C -4.33 1.2021 0.0 0
M  V30 8 C -5.5689 3.3241 0.0 0
M  V30 9 C -5.6916 0.5519 0.0 0
M  V30 10 C -3.8148 0.0122 0.0 0
M  V30 11 C -6.9305 2.674 0.0 0
M  V30 12 C -6.3662 4.7102 0.0 0
M  V30 13 C -4.9556 4.7102 0.0 0
M  V30 14 C -7.0531 1.3493 0.0 0
M  V30 END ATOM
M  V30 BEGIN BOND
M  V30 1 2 1 2
M  V30 2 1 2 3
M  V30 3 1 2 4
M  V30 4 2 3 5
M  V30 5 1 6 5 CFG=1
M  V30 6 1 6 7
M  V30 7 1 6 8
M  V30 8 2 7 9
M  V30 9 1 7 10
M  V30 10 1 8 11
M  V30 11 1 8 12
M  V30 12 1 8 13
M  V30 13 1 9 14
M  V30 14 1 11 14
M  V30 END BOND
M  V30 BEGIN COLLECTION
M  V30 MDLV30/STERAC1 ATOMS=(1 6)
M  V30 END COLLECTION
M  V30 END CTAB
M  END
>  <Molecule Name>
(z)-alpha-ionone

>  <Molecule Name 2>
(z)-alpha-ionone

>  <Database>
Essential Oil Database

>  <InChI>
InChI=1S/C13H20O/c1-10-6-5-9-13(3,4)12(10)8-7-11(2)14/h6-8,12H,5,9H2,1-4H3/b8-7-/t12-/m0/s1

>  <InChI-Key>
UZFLPKAIBPNNCA-KRZKBDHCSA-N

>  <Smiles>
CC1(C)C(/C=C\C(C)=O)C(C)=CCC1

>  <Molecular Formula>
C13H20O

$$$$
damascenine
Actelion Java MolfileCreator 2.0

  0  0  0  0  0  0              0 V3000
M  V30 BEGIN CTAB
M  V30 COUNTS 14 14 0 0 0
M  V30 BEGIN ATOM
M  V30 1 O 0.0 0.0 0.0 0
M  V30 2 C 1.1947 0.8533 0.0 0
M  V30 3 O 1.0634 2.5338 0.0 0
M  V30 4 C 2.3894 0.1575 0.0 0
M  V30 5 C -0.3938 3.3872 0.0 0
M  V30 6 C 3.5841 1.0109 0.0 0
M  V30 7 C 2.2581 -1.2603 0.0 0
M  V30 8 N 3.4529 2.6914 0.0 0
M  V30 9 C 4.7789 0.315 0.0 0
M  V30 10 C 3.4529 -1.9562 0.0 0
M  V30 11 C 1.9955 3.5448 0.0 0
M  V30 12 O 5.9736 1.1684 0.0 0
M  V30 13 C 4.6476 -1.1028 0.0 0
M  V30 14 C 7.1683 0.4726 0.0 0
M  V30 END ATOM
M  V30 BEGIN BOND
M  V30 1 2 1 2
M  V30 2 1 2 3
M  V30 3 1 2 4
M  V30 4 1 3 5
M  V30 5 2 4 6
M  V30 6 1 4 7
M  V30 7 1 6 8
M  V30 8 1 6 9
M  V30 9 2 7 10
M  V30 10 1 8 11
M  V30 11 1 9 12
M  V30 12 2 9 13
M  V30 13 1 12 14
M  V30 14 1 10 13
M  V30 END BOND
M  V30 END CTAB
M  END
>  <Molecule Name>
damascenine

>  <Molecule Name 2>
damascenine

>  <Database>
Essential Oil Database

>  <InChI>
InChI=1S/C10H13NO3/c1-11-9-7(10(12)14-3)5-4-6-8(9)13-2/h4-6,11H,1-3H3

>  <InChI-Key>
ZRWJIZYZTLTXJI-UHFFFAOYSA-N

>  <Smiles>
CNc(c(OC)ccc1)c1C(OC)=O

>  <Molecular Formula>
C10H13NO3

$$$$
methyl-2-amino-3-methoxylbenzoate
Actelion Java MolfileCreator 2.0

  0  0  0  0  0  0              0 V3000
M  V30 BEGIN CTAB
M  V30 COUNTS 13 13 0 0 0
M  V30 BEGIN ATOM
M  V30 1 O 0.0 0.0 0.0 0
M  V30 2 C -1.4517 -0.6931 0.0 0
M  V30 3 O -2.9034 0.1569 0.0 0
M  V30 4 C -1.5824 -2.1056 0.0 0
M  V30 5 C -3.0341 1.8309 0.0 0
M  V30 6 C -0.3923 -2.7987 0.0 0
M  V30 7 C -3.0341 -2.7987 0.0 0
M  V30 8 N 0.7977 -1.9486 0.0 0
M  V30 9 C -0.5231 -4.2112 0.0 0
M  V30 10 C -3.1649 -4.2112 0.0 0
M  V30 11 O 0.6669 -4.9044 0.0 0
M  V30 12 C -1.9748 -4.9044 0.0 0
M  V30 13 C 1.8571 -4.0543 0.0 0
M  V30 END ATOM
M  V30 BEGIN BOND
M  V30 1 2 1 2
M  V30 2 1 2 3
M  V30 3 1 2 4
M  V30 4 1 3 5
M  V30 5 2 4 6
M  V30 6 1 4 7
M  V30 7 1 6 8
M  V30 8 1 6 9
M  V30 9 2 7 10
M  V30 10 1 9 11
M  V30 11 2 9 12
M  V30 12 1 11 13
M  V30 13 1 10 12
M  V30 END BOND
M  V30 END CTAB
M  END
>  <Molecule Name>
methyl-2-amino-3-methoxylbenzoate

>  <Molecule Name 2>
methyl-2-amino-3-methoxylbenzoate

>  <Database>
Essential Oil Database

>  <InChI>
InChI=1S/C9H11NO3/c1-12-7-5-3-4-6(8(7)10)9(11)13-2/h3-5H,10H2,1-2H3

>  <InChI-Key>
YJEZEMGLLFLMDF-UHFFFAOYSA-N

>  <Smiles>
COC(c(cccc1OC)c1N)=O

>  <Molecular Formula>
C9H11NO3

$$$$
2-methyl-1-pentanol
Actelion Java MolfileCreator 2.0

  0  0  0  0  0  0              0 V3000
M  V30 BEGIN CTAB
M  V30 COUNTS 7 6 0 0 0
M  V30 BEGIN ATOM
M  V30 1 O 0.0 0.0 0.0 0
M  V30 2 C 1.2609 0.9485 0.0 0
M  V30 3 C 2.5218 0.3354 0.0 0 CFG=2
M  V30 4 C 3.7827 1.284 0.0 0
M  V30 5 C 2.4061 -1.1221 0.0 0
M  V30 6 C 5.0436 0.6709 0.0 0
M  V30 7 C 6.3046 1.6195 0.0 0
M  V30 END ATOM
M  V30 BEGIN BOND
M  V30 1 1 1 2
M  V30 2 1 2 3
M  V30 3 1 3 4
M  V30 4 1 3 5 CFG=3
M  V30 5 1 4 6
M  V30 6 1 6 7
M  V30 END BOND
M  V30 BEGIN COLLECTION
M  V30 MDLV30/STERAC1 ATOMS=(1 3)
M  V30 END COLLECTION
M  V30 END CTAB
M  END
>  <Molecule Name>
2-methyl-1-pentanol

>  <Molecule Name 2>
2-methyl-1-pentanol

>  <Database>
Essential Oil Database

>  <InChI>
InChI=1S/C6H14O/c1-3-4-6(2)5-7/h6-7H,3-5H2,1-2H3/t6-/m0/s1

>  <InChI-Key>
PFNHSEQQEPMLNI-LURJTMIESA-N

>  <Smiles>
CCCC(C)CO

>  <Molecular Formula>
C6H14O

$$$$
methyl-2-methyl propionate
Actelion Java MolfileCreator 2.0

  0  0  0  0  0  0              0 V3000
M  V30 BEGIN CTAB
M  V30 COUNTS 7 6 0 0 0
M  V30 BEGIN ATOM
M  V30 1 O 0.0 0.0 0.0 0
M  V30 2 C -1.5877 0.124 0.0 0
M  V30 3 O -2.394 -1.0047 0.0 0
M  V30 4 C -2.394 1.5009 0.0 0
M  V30 5 C -1.7366 -2.1335 0.0 0
M  V30 6 C -1.7366 2.8777 0.0 0
M  V30 7 C -3.9817 1.6249 0.0 0
M  V30 END ATOM
M  V30 BEGIN BOND
M  V30 1 2 1 2
M  V30 2 1 2 3
M  V30 3 1 2 4
M  V30 4 1 3 5
M  V30 5 1 4 6
M  V30 6 1 4 7
M  V30 END BOND
M  V30 END CTAB
M  END
>  <Molecule Name>
methyl-2-methyl propionate

>  <Molecule Name 2>
methyl-2-methyl propionate

>  <Database>
Essential Oil Database

>  <InChI>
InChI=1S/C5H10O2/c1-4(2)5(6)7-3/h4H,1-3H3

>  <InChI-Key>
BHIWKHZACMWKOJ-UHFFFAOYSA-N

>  <Smiles>
CC(C)C(OC)=O

>  <Molecular Formula>
C5H10O2

$$$$
phenyl ethyl alcohol
Actelion Java MolfileCreator 2.0

  0  0  0  0  0  0              0 V3000
M  V30 BEGIN CTAB
M  V30 COUNTS 9 9 0 0 0
M  V30 BEGIN ATOM
M  V30 1 O 0.0 0.0 0.0 0
M  V30 2 C -0.1299 -1.4032 0.0 0
M  V30 3 C -1.4422 0.8445 0.0 0
M  V30 4 C 1.0524 -2.0918 0.0 0
M  V30 5 C -1.5721 -2.0918 0.0 0
M  V30 6 C -1.5721 2.5076 0.0 0
M  V30 7 C 0.9224 -3.495 0.0 0
M  V30 8 C -1.702 -3.495 0.0 0
M  V30 9 C -0.5197 -4.1836 0.0 0
M  V30 END ATOM
M  V30 BEGIN BOND
M  V30 1 1 1 2
M  V30 2 1 1 3
M  V30 3 2 2 4
M  V30 4 1 2 5
M  V30 5 1 3 6
M  V30 6 1 4 7
M  V30 7 2 5 8
M  V30 8 2 7 9
M  V30 9 1 8 9
M  V30 END BOND
M  V30 END CTAB
M  END
>  <Molecule Name>
phenyl ethyl alcohol

>  <Molecule Name 2>
phenyl ethyl alcohol

>  <Database>
Essential Oil Database

>  <InChI>
InChI=1S/C8H10O/c1-2-9-8-6-4-3-5-7-8/h3-7H,2H2,1H3

>  <InChI-Key>
DLRJIFUOBPOJNS-UHFFFAOYSA-N

>  <Smiles>
CCOc1ccccc1

>  <Molecular Formula>
C8H10O

$$$$
1-penten-3-one
Actelion Java MolfileCreator 2.0

  0  0  0  0  0  0              0 V3000
M  V30 BEGIN CTAB
M  V30 COUNTS 6 5 0 0 0
M  V30 BEGIN ATOM
M  V30 1 O 0.0 0.0 0.0 0
M  V30 2 C 1.3977 0.1118 0.0 0
M  V30 3 C 1.9904 -1.0958 0.0 0
M  V30 4 C 1.9904 1.5431 0.0 0
M  V30 5 C 1.0846 -2.3035 0.0 0
M  V30 6 C 1.0846 2.9744 0.0 0
M  V30 END ATOM
M  V30 BEGIN BOND
M  V30 1 2 1 2
M  V30 2 1 2 3
M  V30 3 1 2 4
M  V30 4 2 3 5
M  V30 5 1 4 6
M  V30 END BOND
M  V30 END CTAB
M  END
>  <Molecule Name>
1-penten-3-one

>  <Molecule Name 2>
1-penten-3-one

>  <Database>
Essential Oil Database

>  <InChI>
InChI=1S/C5H8O/c1-3-5(6)4-2/h3H,1,4H2,2H3

>  <InChI-Key>
JLIDVCMBCGBIEY-UHFFFAOYSA-N

>  <Smiles>
CCC(C=C)=O

>  <Molecular Formula>
C5H8O

$$$$
1,2,4-trimethoxybenzene
Actelion Java MolfileCreator 2.0

  0  0  0  0  0  0              0 V3000
M  V30 BEGIN CTAB
M  V30 COUNTS 12 12 0 0 0
M  V30 BEGIN ATOM
M  V30 1 O 0.0 0.0 0.0 0
M  V30 2 C -1.4072 -0.6719 0.0 0
M  V30 3 C 1.1536 -0.6719 0.0 0
M  V30 4 C -2.8144 0.1521 0.0 0
M  V30 5 C -1.534 -2.0411 0.0 0
M  V30 6 O -2.9412 1.7748 0.0 0
M  V30 7 C -4.2217 -0.5197 0.0 0
M  V30 8 C -2.9412 -2.713 0.0 0
M  V30 9 C -4.3484 2.5989 0.0 0
M  V30 10 C -4.3484 -1.8889 0.0 0
M  V30 11 O -3.068 -4.0822 0.0 0
M  V30 12 C -1.9143 -4.7668 0.0 0
M  V30 END ATOM
M  V30 BEGIN BOND
M  V30 1 1 1 2
M  V30 2 1 1 3
M  V30 3 2 2 4
M  V30 4 1 2 5
M  V30 5 1 4 6
M  V30 6 1 4 7
M  V30 7 2 5 8
M  V30 8 1 6 9
M  V30 9 2 7 10
M  V30 10 1 8 11
M  V30 11 1 11 12
M  V30 12 1 8 10
M  V30 END BOND
M  V30 END CTAB
M  END
>  <Molecule Name>
1,2,4-trimethoxybenzene

>  <Molecule Name 2>
1,2,4-trimethoxybenzene

>  <Database>
Essential Oil Database

>  <InChI>
InChI=1S/C9H12O3/c1-10-7-4-5-8(11-2)9(6-7)12-3/h4-6H,1-3H3

>  <InChI-Key>
AGIQIOSHSMJYJP-UHFFFAOYSA-N

>  <Smiles>
COc(cc1)cc(OC)c1OC

>  <Molecular Formula>
C9H12O3

$$$$
2,4,4-trimethyl-2-cyclohexen-1-ol
Actelion Java MolfileCreator 2.0

  0  0  0  0  0  0              0 V3000
M  V30 BEGIN CTAB
M  V30 COUNTS 10 10 0 0 0
M  V30 BEGIN ATOM
M  V30 1 O 0.0 0.0 0.0 0
M  V30 2 C -0.1205 1.5432 0.0 0 CFG=2
M  V30 3 C -1.4588 2.3269 0.0 0
M  V30 4 C 0.9765 2.3269 0.0 0
M  V30 5 C -1.5794 3.8702 0.0 0
M  V30 6 C -2.7971 1.6879 0.0 0
M  V30 7 C 0.856 3.8702 0.0 0
M  V30 8 C -0.4822 4.6659 0.0 0
M  V30 9 C -1.2659 6.0283 0.0 0
M  V30 10 C 0.1205 6.0283 0.0 0
M  V30 END ATOM
M  V30 BEGIN BOND
M  V30 1 1 2 1 CFG=3
M  V30 2 1 2 3
M  V30 3 1 2 4
M  V30 4 2 3 5
M  V30 5 1 3 6
M  V30 6 1 4 7
M  V30 7 1 5 8
M  V30 8 1 8 9
M  V30 9 1 8 10
M  V30 10 1 7 8
M  V30 END BOND
M  V30 BEGIN COLLECTION
M  V30 MDLV30/STERAC1 ATOMS=(1 2)
M  V30 END COLLECTION
M  V30 END CTAB
M  END
>  <Molecule Name>
2,4,4-trimethyl-2-cyclohexen-1-ol

>  <Molecule Name 2>
2,4,4-trimethyl-2-cyclohexen-1-ol

>  <Database>
Essential Oil Database

>  <InChI>
InChI=1S/C9H16O/c1-7-6-9(2,3)5-4-8(7)10/h6,8,10H,4-5H2,1-3H3/t8-/m0/s1

>  <InChI-Key>
ICOGGQPDWLYTOZ-QMMMGPOBSA-N

>  <Smiles>
CC(C)(CC1)C=C(C)C1O

>  <Molecular Formula>
C9H16O

$$$$
2,5-dimethylphenol
Actelion Java MolfileCreator 2.0

  0  0  0  0  0  0              0 V3000
M  V30 BEGIN CTAB
M  V30 COUNTS 9 9 0 0 0
M  V30 BEGIN ATOM
M  V30 1 O 0.0 0.0 0.0 0
M  V30 2 C -0.1156 -1.4454 0.0 0
M  V30 3 C 1.1332 -2.0583 0.0 0
M  V30 4 C -1.5958 -2.0583 0.0 0
M  V30 5 C 1.0176 -3.5038 0.0 0
M  V30 6 C 2.3821 -1.1217 0.0 0
M  V30 7 C -1.7114 -3.5038 0.0 0
M  V30 8 C -0.4625 -4.1167 0.0 0
M  V30 9 C -3.1916 -4.1167 0.0 0
M  V30 END ATOM
M  V30 BEGIN BOND
M  V30 1 1 1 2
M  V30 2 2 2 3
M  V30 3 1 2 4
M  V30 4 1 3 5
M  V30 5 1 3 6
M  V30 6 2 4 7
M  V30 7 2 5 8
M  V30 8 1 7 9
M  V30 9 1 7 8
M  V30 END BOND
M  V30 END CTAB
M  END
>  <Molecule Name>
2,5-dimethylphenol

>  <Molecule Name 2>
2,5-dimethylphenol

>  <Database>
Essential Oil Database

>  <InChI>
InChI=1S/C8H10O/c1-6-3-4-7(2)8(9)5-6/h3-5,9H,1-2H3

>  <InChI-Key>
NKTOLZVEWDHZMU-UHFFFAOYSA-N

>  <Smiles>
Cc1cc(O)c(C)cc1

>  <Molecular Formula>
C8H10O

$$$$
2-acetonyl-4-methyl tetrahydropyran
Actelion Java MolfileCreator 2.0

  0  0  0  0  0  0              0 V3000
M  V30 BEGIN CTAB
M  V30 COUNTS 11 11 0 0 0
M  V30 BEGIN ATOM
M  V30 1 O 0.0 0.0 0.0 0
M  V30 2 C -0.1301 -1.4053 0.0 0
M  V30 3 C 1.0539 -2.0949 0.0 0
M  V30 4 C -1.5744 -2.0949 0.0 0
M  V30 5 C 2.238 -1.2491 0.0 0
M  V30 6 O 3.4221 -1.9387 0.0 0
M  V30 7 C 2.1079 0.4163 0.0 0
M  V30 8 C 4.6062 -1.093 0.0 0
M  V30 9 C 3.292 1.2621 0.0 0
M  V30 10 C 4.4761 0.5725 0.0 0
M  V30 11 C 3.1619 2.9277 0.0 0
M  V30 END ATOM
M  V30 BEGIN BOND
M  V30 1 2 1 2
M  V30 2 1 2 3
M  V30 3 1 2 4
M  V30 4 1 3 5
M  V30 5 1 5 6
M  V30 6 1 5 7
M  V30 7 1 6 8
M  V30 8 1 7 9
M  V30 9 1 8 10
M  V30 10 1 9 11
M  V30 11 1 9 10
M  V30 END BOND
M  V30 END CTAB
M  END
>  <Molecule Name>
2-acetonyl-4-methyl tetrahydropyran

>  <Molecule Name 2>
2-acetonyl-4-methyl tetrahydropyran

>  <Database>
Essential Oil Database

>  <InChI>
InChI=1S/C9H16O2/c1-7-3-4-11-9(5-7)6-8(2)10/h7,9H,3-6H2,1-2H3

>  <InChI-Key>
LBOQZBRHNXPXIY-UHFFFAOYSA-N

>  <Smiles>
CC1CC(CC(C)=O)OCC1

>  <Molecular Formula>
C9H16O2

$$$$
2-ethylphenol
Actelion Java MolfileCreator 2.0

  0  0  0  0  0  0              0 V3000
M  V30 BEGIN CTAB
M  V30 COUNTS 9 9 0 0 0
M  V30 BEGIN ATOM
M  V30 1 O 0.0 0.0 0.0 0
M  V30 2 C -0.1319 -1.4254 0.0 0
M  V30 3 C 1.0691 -2.125 0.0 0
M  V30 4 C -1.597 -2.125 0.0 0
M  V30 5 C 0.9371 -3.5504 0.0 0
M  V30 6 C 2.2702 -1.2538 0.0 0
M  V30 7 C -1.729 -3.5504 0.0 0
M  V30 8 C -0.5279 -4.25 0.0 0
M  V30 9 C 2.1382 0.4355 0.0 0
M  V30 END ATOM
M  V30 BEGIN BOND
M  V30 1 1 1 2
M  V30 2 2 2 3
M  V30 3 1 2 4
M  V30 4 1 3 5
M  V30 5 1 3 6
M  V30 6 2 4 7
M  V30 7 2 5 8
M  V30 8 1 6 9
M  V30 9 1 7 8
M  V30 END BOND
M  V30 END CTAB
M  END
>  <Molecule Name>
2-ethylphenol

>  <Molecule Name 2>
2-ethylphenol

>  <Database>
Essential Oil Database

>  <InChI>
InChI=1S/C8H10O/c1-2-7-5-3-4-6-8(7)9/h3-6,9H,2H2,1H3

>  <InChI-Key>
IXQGCWUGDFDQMF-UHFFFAOYSA-N

>  <Smiles>
CCc(cccc1)c1O

>  <Molecular Formula>
C8H10O

$$$$
4,4,6-trimethyl-2-cyclohexen-1-one
Actelion Java MolfileCreator 2.0

  0  0  0  0  0  0              0 V3000
M  V30 BEGIN CTAB
M  V30 COUNTS 10 10 0 0 0
M  V30 BEGIN ATOM
M  V30 1 O 0.0 0.0 0.0 0
M  V30 2 C -0.1224 1.5669 0.0 0
M  V30 3 C -1.4812 2.3626 0.0 0
M  V30 4 C 0.9915 2.3626 0.0 0 CFG=2
M  V30 5 C -1.6036 3.9295 0.0 0
M  V30 6 C 0.8691 3.9295 0.0 0
M  V30 7 C 2.1055 1.7138 0.0 0
M  V30 8 C -0.4896 4.7252 0.0 0
M  V30 9 C -1.2853 6.1085 0.0 0
M  V30 10 C 0.1224 6.1085 0.0 0
M  V30 END ATOM
M  V30 BEGIN BOND
M  V30 1 2 1 2
M  V30 2 1 2 3
M  V30 3 1 2 4
M  V30 4 2 3 5
M  V30 5 1 4 6
M  V30 6 1 4 7 CFG=3
M  V30 7 1 5 8
M  V30 8 1 8 9
M  V30 9 1 8 10
M  V30 10 1 6 8
M  V30 END BOND
M  V30 BEGIN COLLECTION
M  V30 MDLV30/STERAC1 ATOMS=(1 4)
M  V30 END COLLECTION
M  V30 END CTAB
M  END
>  <Molecule Name>
4,4,6-trimethyl-2-cyclohexen-1-one

>  <Molecule Name 2>
4,4,6-trimethyl-2-cyclohexen-1-one

>  <Database>
Essential Oil Database

>  <InChI>
InChI=1S/C9H14O/c1-7-6-9(2,3)5-4-8(7)10/h4-5,7H,6H2,1-3H3/t7-/m0/s1

>  <InChI-Key>
PLXVUZMJQPEWPH-ZETCQYMHSA-N

>  <Smiles>
CC(CC(C)(C)C=C1)C1=O

>  <Molecular Formula>
C9H14O

$$$$
4-ethylphenol
Actelion Java MolfileCreator 2.0

  0  0  0  0  0  0              0 V3000
M  V30 BEGIN CTAB
M  V30 COUNTS 9 9 0 0 0
M  V30 BEGIN ATOM
M  V30 1 O 0.0 0.0 0.0 0
M  V30 2 C -0.1184 -1.4802 0.0 0
M  V30 3 C 1.1604 -2.1078 0.0 0
M  V30 4 C -1.6341 -2.1078 0.0 0
M  V30 5 C 1.042 -3.588 0.0 0
M  V30 6 C -1.7525 -3.588 0.0 0
M  V30 7 C -0.4736 -4.2156 0.0 0
M  V30 8 C -0.592 -5.6959 0.0 0
M  V30 9 C 0.6868 -6.3353 0.0 0
M  V30 END ATOM
M  V30 BEGIN BOND
M  V30 1 1 1 2
M  V30 2 2 2 3
M  V30 3 1 2 4
M  V30 4 1 3 5
M  V30 5 2 4 6
M  V30 6 2 5 7
M  V30 7 1 7 8
M  V30 8 1 8 9
M  V30 9 1 6 7
M  V30 END BOND
M  V30 END CTAB
M  END
>  <Molecule Name>
4-ethylphenol

>  <Molecule Name 2>
4-ethylphenol

>  <Database>
Essential Oil Database

>  <InChI>
InChI=1S/C8H10O/c1-2-7-3-5-8(9)6-4-7/h3-6,9H,2H2,1H3

>  <InChI-Key>
HXDOZKJGKXYMEW-UHFFFAOYSA-N

>  <Smiles>
CCc(cc1)ccc1O

>  <Molecular Formula>
C8H10O

$$$$
6-hydroxy-2,2,6-trimethyl-cyclohexanone
Actelion Java MolfileCreator 2.0

  0  0  0  0  0  0              0 V3000
M  V30 BEGIN CTAB
M  V30 COUNTS 11 11 0 0 0
M  V30 BEGIN ATOM
M  V30 1 O 0.0 0.0 0.0 0
M  V30 2 C -1.401 -0.5893 0.0 0
M  V30 3 C -2.8021 0.2891 0.0 0 CFG=1
M  V30 4 C -1.5122 -1.957 0.0 0
M  V30 5 O -2.2462 1.7124 0.0 0
M  V30 6 C -4.2032 -0.3002 0.0 0
M  V30 7 C -3.6139 1.7124 0.0 0
M  V30 8 C -2.9133 -2.5464 0.0 0
M  V30 9 C -0.1445 -1.8903 0.0 0
M  V30 10 C -0.8117 -3.1135 0.0 0
M  V30 11 C -4.3144 -1.6679 0.0 0
M  V30 END ATOM
M  V30 BEGIN BOND
M  V30 1 2 1 2
M  V30 2 1 2 3
M  V30 3 1 2 4
M  V30 4 1 3 5 CFG=3
M  V30 5 1 3 6
M  V30 6 1 3 7
M  V30 7 1 4 8
M  V30 8 1 4 9
M  V30 9 1 4 10
M  V30 10 1 6 11
M  V30 11 1 8 11
M  V30 END BOND
M  V30 BEGIN COLLECTION
M  V30 MDLV30/STERAC1 ATOMS=(1 3)
M  V30 END COLLECTION
M  V30 END CTAB
M  END
>  <Molecule Name>
6-hydroxy-2,2,6-trimethyl-cyclohexanone

>  <Molecule Name 2>
6-hydroxy-2,2,6-trimethyl-cyclohexanone

>  <Database>
Essential Oil Database

>  <InChI>
InChI=1S/C9H16O2/c1-8(2)5-4-6-9(3,11)7(8)10/h11H,4-6H2,1-3H3/t9-/m0/s1

>  <InChI-Key>
FWCGLHYHGUHPRY-VIFPVBQESA-N

>  <Smiles>
CC(C)(CCCC1(C)O)C1=O

>  <Molecular Formula>
C9H16O2

$$$$
alpha-cyclocitral
Actelion Java MolfileCreator 2.0

  0  0  0  0  0  0              0 V3000
M  V30 BEGIN CTAB
M  V30 COUNTS 11 11 0 0 0
M  V30 BEGIN ATOM
M  V30 1 O 0.0 0.0 0.0 0
M  V30 2 C -0.1094 -1.3681 0.0 0
M  V30 3 C -1.5103 -1.9481 0.0 0 CFG=1
M  V30 4 C -1.6198 -3.3162 0.0 0
M  V30 5 C -2.9113 -1.0616 0.0 0
M  V30 6 C -3.0207 -3.8963 0.0 0
M  V30 7 C -0.4377 -3.8963 0.0 0
M  V30 8 C -4.3122 -1.6417 0.0 0
M  V30 9 C -4.0058 0.197 0.0 0
M  V30 10 C -2.0357 0.197 0.0 0
M  V30 11 C -4.4217 -3.0098 0.0 0
M  V30 END ATOM
M  V30 BEGIN BOND
M  V30 1 2 1 2
M  V30 2 1 3 2 CFG=1
M  V30 3 1 3 4
M  V30 4 1 3 5
M  V30 5 2 4 6
M  V30 6 1 4 7
M  V30 7 1 5 8
M  V30 8 1 5 9
M  V30 9 1 5 10
M  V30 10 1 6 11
M  V30 11 1 8 11
M  V30 END BOND
M  V30 BEGIN COLLECTION
M  V30 MDLV30/STERAC1 ATOMS=(1 3)
M  V30 END COLLECTION
M  V30 END CTAB
M  END
>  <Molecule Name>
alpha-cyclocitral

>  <Molecule Name 2>
alpha-cyclocitral

>  <Database>
Essential Oil Database

>  <InChI>
InChI=1S/C10H16O/c1-8-5-4-6-10(2,3)9(8)7-11/h5,7,9H,4,6H2,1-3H3/t9-/m0/s1

>  <InChI-Key>
ZVZRJSHOOULAGB-VIFPVBQESA-N

>  <Smiles>
CC1(C)C(C=O)C(C)=CCC1

>  <Molecular Formula>
C10H16O

$$$$
benzyl cyanide
Actelion Java MolfileCreator 2.0

  0  0  0  0  0  0              0 V3000
M  V30 BEGIN CTAB
M  V30 COUNTS 9 9 0 0 0
M  V30 BEGIN ATOM
M  V30 1 N 0.0 0.0 0.0 0
M  V30 2 C 1.2846 -0.6423 0.0 0
M  V30 3 C 2.5693 -1.2727 0.0 0
M  V30 4 C 2.4503 -2.7596 0.0 0
M  V30 5 C 3.735 -3.39 0.0 0
M  V30 6 C 0.9278 -3.39 0.0 0
M  V30 7 C 3.616 -4.8769 0.0 0
M  V30 8 C 0.8088 -4.8769 0.0 0
M  V30 9 C 2.0935 -5.5073 0.0 0
M  V30 END ATOM
M  V30 BEGIN BOND
M  V30 1 3 1 2
M  V30 2 1 2 3
M  V30 3 1 3 4
M  V30 4 2 4 5
M  V30 5 1 4 6
M  V30 6 1 5 7
M  V30 7 2 6 8
M  V30 8 2 7 9
M  V30 9 1 8 9
M  V30 END BOND
M  V30 END CTAB
M  END
>  <Molecule Name>
benzyl cyanide

>  <Molecule Name 2>
benzyl cyanide

>  <Database>
Essential Oil Database

>  <InChI>
InChI=1S/C8H7N/c9-7-6-8-4-2-1-3-5-8/h1-5H,6H2

>  <InChI-Key>
SUSQOBVLVYHIEX-UHFFFAOYSA-N

>  <Smiles>
N#CCc1ccccc1

>  <Molecular Formula>
C8H7N

$$$$
beta-homocyclocitral
Actelion Java MolfileCreator 2.0

  0  0  0  0  0  0              0 V3000
M  V30 BEGIN CTAB
M  V30 COUNTS 12 12 0 0 0
M  V30 BEGIN ATOM
M  V30 1 O 0.0 0.0 0.0 0
M  V30 2 C 1.2474 -0.6121 0.0 0
M  V30 3 C 1.1319 -2.0559 0.0 0
M  V30 4 C 2.3793 -2.668 0.0 0
M  V30 5 C 2.2638 -4.1118 0.0 0
M  V30 6 C 3.6267 -1.7325 0.0 0
M  V30 7 C 3.5112 -4.7239 0.0 0
M  V30 8 C 0.7854 -4.7239 0.0 0
M  V30 9 C 4.8741 -2.3446 0.0 0
M  V30 10 C 2.4717 -0.4042 0.0 0
M  V30 11 C 4.5507 -0.4042 0.0 0
M  V30 12 C 4.7586 -3.7884 0.0 0
M  V30 END ATOM
M  V30 BEGIN BOND
M  V30 1 2 1 2
M  V30 2 1 2 3
M  V30 3 1 3 4
M  V30 4 2 4 5
M  V30 5 1 4 6
M  V30 6 1 5 7
M  V30 7 1 5 8
M  V30 8 1 6 9
M  V30 9 1 6 10
M  V30 10 1 6 11
M  V30 11 1 7 12
M  V30 12 1 9 12
M  V30 END BOND
M  V30 END CTAB
M  END
>  <Molecule Name>
beta-homocyclocitral

>  <Molecule Name 2>
beta-homocyclocitral

>  <Database>
Essential Oil Database

>  <InChI>
InChI=1S/C11H18O/c1-9-5-4-7-11(2,3)10(9)6-8-12/h8H,4-7H2,1-3H3

>  <InChI-Key>
VHTFHZGAMYUZEP-UHFFFAOYSA-N

>  <Smiles>
CC1(C)C(CC=O)=C(C)CCC1

>  <Molecular Formula>
C11H18O

$$$$
dihydroactinidiolide
Actelion Java MolfileCreator 2.0

  0  0  0  0  0  0              0 V3000
M  V30 BEGIN CTAB
M  V30 COUNTS 13 14 0 0 0
M  V30 BEGIN ATOM
M  V30 1 O 0.0 0.0 0.0 0
M  V30 2 C 1.4609 0.134 0.0 0
M  V30 3 O 2.265 1.5413 0.0 0
M  V30 4 C 2.265 -1.0052 0.0 0
M  V30 5 C 3.6455 1.1526 0.0 0 CFG=2
M  V30 6 C 3.6455 -0.3484 0.0 0
M  V30 7 C 4.8786 2.0372 0.0 0
M  V30 8 C 3.3372 2.8681 0.0 0
M  V30 9 C 4.8786 -1.0722 0.0 0
M  V30 10 C 6.1116 1.3268 0.0 0
M  V30 11 C 6.1116 -0.1876 0.0 0
M  V30 12 C 5.7363 -2.131 0.0 0
M  V30 13 C 3.7527 -2.131 0.0 0
M  V30 END ATOM
M  V30 BEGIN BOND
M  V30 1 2 1 2
M  V30 2 1 2 3
M  V30 3 1 2 4
M  V30 4 1 3 5
M  V30 5 2 4 6
M  V30 6 1 5 7
M  V30 7 1 5 8 CFG=3
M  V30 8 1 6 9
M  V30 9 1 7 10
M  V30 10 1 9 11
M  V30 11 1 9 12
M  V30 12 1 9 13
M  V30 13 1 5 6
M  V30 14 1 10 11
M  V30 END BOND
M  V30 BEGIN COLLECTION
M  V30 MDLV30/STERAC1 ATOMS=(1 5)
M  V30 END COLLECTION
M  V30 END CTAB
M  END
>  <Molecule Name>
dihydroactinidiolide

>  <Molecule Name 2>
dihydroactinidiolide

>  <Database>
Essential Oil Database

>  <InChI>
InChI=1S/C11H16O2/c1-10(2)5-4-6-11(3)8(10)7-9(12)13-11/h7H,4-6H2,1-3H3/t11-/m0/s1

>  <InChI-Key>
IMKHDCBNRDRUEB-NSHDSACASA-N

>  <Smiles>
CC(CCCC1(C)C)(C1=C1)OC1=O

>  <Molecular Formula>
C11H16O2

$$$$
(e)-3-hexenal
Actelion Java MolfileCreator 2.0

  0  0  0  0  0  0              0 V3000
M  V30 BEGIN CTAB
M  V30 COUNTS 7 6 0 0 0
M  V30 BEGIN ATOM
M  V30 1 O 0.0 0.0 0.0 0
M  V30 2 C -0.8117 -1.1364 0.0 0
M  V30 3 C -2.4102 -1.0115 0.0 0
M  V30 4 C -3.222 -2.148 0.0 0
M  V30 5 C -4.8205 -2.0231 0.0 0
M  V30 6 C -5.6323 -3.1596 0.0 0
M  V30 7 C -7.2308 -3.0347 0.0 0
M  V30 END ATOM
M  V30 BEGIN BOND
M  V30 1 2 1 2
M  V30 2 1 2 3
M  V30 3 1 3 4
M  V30 4 2 4 5
M  V30 5 1 5 6
M  V30 6 1 6 7
M  V30 END BOND
M  V30 END CTAB
M  END
>  <Molecule Name>
(e)-3-hexenal

>  <Molecule Name 2>
(e)-3-hexenal

>  <Database>
Essential Oil Database

>  <InChI>
InChI=1S/C6H10O/c1-2-3-4-5-6-7/h3-4,6H,2,5H2,1H3/b4-3+

>  <InChI-Key>
GXANMBISFKBPEX-ONEGZZNKSA-N

>  <Smiles>
CC/C=C/CC=O

>  <Molecular Formula>
C6H10O

$$$$
nonadienal
Actelion Java MolfileCreator 2.0

  0  0  0  0  0  0              0 V3000
M  V30 BEGIN CTAB
M  V30 COUNTS 10 9 0 0 0
M  V30 BEGIN ATOM
M  V30 1 O 0.0 0.0 0.0 0
M  V30 2 C -0.9193 1.4527 0.0 0
M  V30 3 C -0.3177 2.9055 0.0 0
M  V30 4 C 1.1009 3.019 0.0 0
M  V30 5 C 1.7024 4.4718 0.0 0
M  V30 6 C 3.1212 4.5853 0.0 0
M  V30 7 C 3.7227 6.0381 0.0 0
M  V30 8 C 5.1415 6.1516 0.0 0
M  V30 9 C 5.7544 4.9258 0.0 0
M  V30 10 C 7.1731 5.0393 0.0 0
M  V30 END ATOM
M  V30 BEGIN BOND
M  V30 1 2 1 2
M  V30 2 1 2 3
M  V30 3 2 3 4
M  V30 4 1 4 5
M  V30 5 1 5 6
M  V30 6 1 6 7
M  V30 7 2 7 8
M  V30 8 1 8 9
M  V30 9 1 9 10
M  V30 END BOND
M  V30 END CTAB
M  END
>  <Molecule Name>
nonadienal

>  <Molecule Name 2>
nonadienal

>  <Database>
Essential Oil Database

>  <InChI>
InChI=1S/C9H14O/c1-2-3-4-5-6-7-8-9-10/h3-4,7-9H,2,5-6H2,1H3/b4-3-,8-7+

>  <InChI-Key>
HZYHMHHBBBSGHB-ODYTWBPASA-N

>  <Smiles>
CC/C=C\CC/C=C/C=O

>  <Molecular Formula>
C9H14O

$$$$
octenol
Actelion Java MolfileCreator 2.0

  0  0  0  0  0  0              0 V3000
M  V30 BEGIN CTAB
M  V30 COUNTS 9 8 0 0 0
M  V30 BEGIN ATOM
M  V30 1 O 0.0 0.0 0.0 0
M  V30 2 C 1.2552 0.9165 0.0 0
M  V30 3 C 2.5105 0.1992 0.0 0
M  V30 4 C 3.7657 1.1157 0.0 0
M  V30 5 C 5.021 0.3984 0.0 0
M  V30 6 C 6.2762 1.315 0.0 0
M  V30 7 C 7.5315 0.5977 0.0 0
M  V30 8 C 8.7868 1.5142 0.0 0
M  V30 9 C 10.042 0.7969 0.0 0
M  V30 END ATOM
M  V30 BEGIN BOND
M  V30 1 1 1 2
M  V30 2 2 2 3
M  V30 3 1 3 4
M  V30 4 1 4 5
M  V30 5 1 5 6
M  V30 6 1 6 7
M  V30 7 1 7 8
M  V30 8 1 8 9
M  V30 END BOND
M  V30 END CTAB
M  END
>  <Molecule Name>
octenol

>  <Molecule Name 2>
octenol

>  <Database>
Essential Oil Database

>  <InChI>
InChI=1S/C8H16O/c1-2-3-4-5-6-7-8-9/h7-9H,2-6H2,1H3/b8-7+

>  <InChI-Key>
MDVPRIBCAFEROC-BQYQJAHWSA-N

>  <Smiles>
CCCCCC/C=C/O

>  <Molecular Formula>
C8H16O

$$$$
p-tolylaldehyde
Actelion Java MolfileCreator 2.0

  0  0  0  0  0  0              0 V3000
M  V30 BEGIN CTAB
M  V30 COUNTS 9 9 0 0 0
M  V30 BEGIN ATOM
M  V30 1 O 0.0 0.0 0.0 0
M  V30 2 C 1.2794 -0.6278 0.0 0
M  V30 3 C 1.1609 -2.1086 0.0 0
M  V30 4 C 2.4403 -2.7365 0.0 0
M  V30 5 C -0.3553 -2.7365 0.0 0
M  V30 6 C 2.3218 -4.2173 0.0 0
M  V30 7 C -0.4738 -4.2173 0.0 0
M  V30 8 C 0.8055 -4.8451 0.0 0
M  V30 9 C 0.687 -6.3259 0.0 0
M  V30 END ATOM
M  V30 BEGIN BOND
M  V30 1 2 1 2
M  V30 2 1 2 3
M  V30 3 2 3 4
M  V30 4 1 3 5
M  V30 5 1 4 6
M  V30 6 2 5 7
M  V30 7 2 6 8
M  V30 8 1 8 9
M  V30 9 1 7 8
M  V30 END BOND
M  V30 END CTAB
M  END
>  <Molecule Name>
p-tolylaldehyde

>  <Molecule Name 2>
p-tolylaldehyde

>  <Database>
Essential Oil Database

>  <InChI>
InChI=1S/C8H8O/c1-7-2-4-8(6-9)5-3-7/h2-6H,1H3

>  <InChI-Key>
FXLOVSHXALFLKQ-UHFFFAOYSA-N

>  <Smiles>
Cc1ccc(C=O)cc1

>  <Molecular Formula>
C8H8O

$$$$
styrallyl alcohol
Actelion Java MolfileCreator 2.0

  0  0  0  0  0  0              0 V3000
M  V30 BEGIN CTAB
M  V30 COUNTS 9 9 0 0 0
M  V30 BEGIN ATOM
M  V30 1 O 0.0 0.0 0.0 0
M  V30 2 C 1.2693 -0.6229 0.0 0 CFG=2
M  V30 3 C 1.1518 -2.0921 0.0 0
M  V30 4 C 2.5387 0.3173 0.0 0
M  V30 5 C 2.4212 -2.715 0.0 0
M  V30 6 C -0.3526 -2.715 0.0 0
M  V30 7 C 2.3036 -4.1842 0.0 0
M  V30 8 C -0.4701 -4.1842 0.0 0
M  V30 9 C 0.7992 -4.8072 0.0 0
M  V30 END ATOM
M  V30 BEGIN BOND
M  V30 1 1 2 1 CFG=1
M  V30 2 1 2 3
M  V30 3 1 2 4
M  V30 4 2 3 5
M  V30 5 1 3 6
M  V30 6 1 5 7
M  V30 7 2 6 8
M  V30 8 2 7 9
M  V30 9 1 8 9
M  V30 END BOND
M  V30 BEGIN COLLECTION
M  V30 MDLV30/STERAC1 ATOMS=(1 2)
M  V30 END COLLECTION
M  V30 END CTAB
M  END
>  <Molecule Name>
styrallyl alcohol

>  <Molecule Name 2>
styrallyl alcohol

>  <Database>
Essential Oil Database

>  <InChI>
InChI=1S/C8H10O/c1-7(9)8-5-3-2-4-6-8/h2-7,9H,1H3/t7-/m0/s1

>  <InChI-Key>
WAPNOHKVXSQRPX-ZETCQYMHSA-N

>  <Smiles>
CC(c1ccccc1)O

>  <Molecular Formula>
C8H10O

$$$$
(z)-4-heptenol
Actelion Java MolfileCreator 2.0

  0  0  0  0  0  0              0 V3000
M  V30 BEGIN CTAB
M  V30 COUNTS 8 7 0 0 0
M  V30 BEGIN ATOM
M  V30 1 O 0.0 0.0 0.0 0
M  V30 2 C -1.5199 0.1187 0.0 0
M  V30 3 C -2.3036 1.4368 0.0 0
M  V30 4 C -3.8235 1.5555 0.0 0
M  V30 5 C -4.6072 2.8736 0.0 0
M  V30 6 C -6.1272 2.9923 0.0 0
M  V30 7 C -6.9109 1.9117 0.0 0
M  V30 8 C -8.4308 2.0305 0.0 0
M  V30 END ATOM
M  V30 BEGIN BOND
M  V30 1 1 1 2
M  V30 2 1 2 3
M  V30 3 1 3 4
M  V30 4 1 4 5
M  V30 5 2 5 6
M  V30 6 1 6 7
M  V30 7 1 7 8
M  V30 END BOND
M  V30 END CTAB
M  END
>  <Molecule Name>
(z)-4-heptenol

>  <Molecule Name 2>
(z)-4-heptenol

>  <Database>
Essential Oil Database

>  <InChI>
InChI=1S/C7H14O/c1-2-3-4-5-6-7-8/h3-4,8H,2,5-7H2,1H3/b4-3-

>  <InChI-Key>
CUKAXHVLXKIPKF-ARJAWSKDSA-N

>  <Smiles>
CC/C=C\CCCO

>  <Molecular Formula>
C7H14O

$$$$
pinocarveol
Actelion Java MolfileCreator 2.0

  0  0  0  0  0  0              0 V3000
M  V30 BEGIN CTAB
M  V30 COUNTS 11 12 0 0 0
M  V30 BEGIN ATOM
M  V30 1 O 0.0 0.0 0.0 0
M  V30 2 C -1.6181 0.1264 0.0 0
M  V30 3 C -2.4524 -1.0239 0.0 0
M  V30 4 C -2.4524 1.5296 0.0 0
M  V30 5 C -1.7697 -2.1743 0.0 0
M  V30 6 C -4.0705 -0.8975 0.0 0
M  V30 7 C -4.0705 1.656 0.0 0
M  V30 8 C -4.9048 0.5056 0.0 0
M  V30 9 C -3.8556 0.5056 0.0 0
M  V30 10 C -6.1437 1.5548 0.0 0
M  V30 11 C -6.1437 -0.2907 0.0 0
M  V30 END ATOM
M  V30 BEGIN BOND
M  V30 1 1 1 2
M  V30 2 1 2 3
M  V30 3 1 2 4
M  V30 4 2 3 5
M  V30 5 1 3 6
M  V30 6 1 4 7
M  V30 7 1 6 8
M  V30 8 1 6 9
M  V30 9 1 8 10
M  V30 10 1 8 11
M  V30 11 1 7 8
M  V30 12 1 7 9
M  V30 END BOND
M  V30 END CTAB
M  END
>  <Molecule Name>
pinocarveol

>  <Molecule Name 2>
pinocarveol

>  <Database>
Essential Oil Database

>  <InChI>
InChI=1S/C10H16O/c1-6-8-4-7(5-9(6)11)10(8,2)3/h7-9,11H,1,4-5H2,2-3H3

>  <InChI-Key>
LCYXQUJDODZYIJ-UHFFFAOYSA-N

>  <Smiles>
CC(C)(C(C1)CC2O)C1C2=C

>  <Molecular Formula>
C10H16O

$$$$
1-hydroxy linalool
Actelion Java MolfileCreator 2.0

  0  0  0  0  0  0              0 V3000
M  V30 BEGIN CTAB
M  V30 COUNTS 12 11 0 0 0
M  V30 BEGIN ATOM
M  V30 1 O 0.0 0.0 0.0 0
M  V30 2 C 0.598 1.4444 0.0 0
M  V30 3 C 2.0086 1.5572 0.0 0
M  V30 4 C 2.6067 3.0016 0.0 0 CFG=1
M  V30 5 O 3.8254 2.3923 0.0 0
M  V30 6 C 3.216 4.446 0.0 0
M  V30 7 C 1.1622 3.9156 0.0 0
M  V30 8 C 4.6266 4.5589 0.0 0
M  V30 9 C 5.2359 6.0033 0.0 0
M  V30 10 C 6.6465 6.1161 0.0 0
M  V30 11 C 7.2446 7.5605 0.0 0
M  V30 12 C 7.2446 4.8974 0.0 0
M  V30 END ATOM
M  V30 BEGIN BOND
M  V30 1 1 1 2
M  V30 2 2 2 3
M  V30 3 1 3 4
M  V30 4 1 4 5
M  V30 5 1 4 6 CFG=3
M  V30 6 1 4 7
M  V30 7 1 6 8
M  V30 8 1 8 9
M  V30 9 2 9 10
M  V30 10 1 10 11
M  V30 11 1 10 12
M  V30 END BOND
M  V30 BEGIN COLLECTION
M  V30 MDLV30/STERAC1 ATOMS=(1 4)
M  V30 END COLLECTION
M  V30 END CTAB
M  END
>  <Molecule Name>
1-hydroxy linalool

>  <Molecule Name 2>
1-hydroxy linalool

>  <Database>
Essential Oil Database

>  <InChI>
InChI=1S/C10H18O2/c1-9(2)5-4-6-10(3,12)7-8-11/h5,7-8,11-12H,4,6H2,1-3H3/b8-7+/t10-/m0/s1

>  <InChI-Key>
LCRYKIFRBLQIAW-JARNTUPDSA-N

>  <Smiles>
CC(CCC=C(C)C)(/C=C/O)O

>  <Molecular Formula>
C10H18O2

$$$$
p-menth-1-en-8-yl-acetate
Actelion Java MolfileCreator 2.0

  0  0  0  0  0  0              0 V3000
M  V30 BEGIN CTAB
M  V30 COUNTS 14 14 0 0 0
M  V30 BEGIN ATOM
M  V30 1 O 0.0 0.0 0.0 0
M  V30 2 C 1.1342 -0.6606 0.0 0
M  V30 3 O 1.0096 -2.0068 0.0 0 CHG=-1
M  V30 4 C 2.2685 0.1371 0.0 0
M  V30 5 C 2.1439 1.7326 0.0 0
M  V30 6 C 2.0192 3.328 0.0 0 CFG=2
M  V30 7 C 3.4901 1.8572 0.0 0
M  V30 8 C 0.5484 1.8572 0.0 0
M  V30 9 C 0.6357 4.1383 0.0 0
M  V30 10 C 3.1535 4.1383 0.0 0
M  V30 11 C 0.511 5.7337 0.0 0
M  V30 12 C 3.0289 5.7337 0.0 0
M  V30 13 C 1.6453 6.544 0.0 0
M  V30 14 C 1.5207 8.1394 0.0 0
M  V30 END ATOM
M  V30 BEGIN BOND
M  V30 1 2 1 2
M  V30 2 1 2 3
M  V30 3 1 2 4
M  V30 4 1 4 5
M  V30 5 1 6 5 CFG=3
M  V30 6 1 5 7
M  V30 7 1 5 8
M  V30 8 1 6 9
M  V30 9 1 6 10
M  V30 10 1 9 11
M  V30 11 1 10 12
M  V30 12 2 11 13
M  V30 13 1 13 14
M  V30 14 1 12 13
M  V30 END BOND
M  V30 BEGIN COLLECTION
M  V30 MDLV30/STERAC1 ATOMS=(1 6)
M  V30 END COLLECTION
M  V30 END CTAB
M  END
>  <Molecule Name>
p-menth-1-en-8-yl-acetate

>  <Molecule Name 2>
p-menth-1-en-8-yl-acetate

>  <Database>
Essential Oil Database

>  <InChI>
InChI=1S/C12H20O2/c1-9-4-6-10(7-5-9)12(2,3)8-11(13)14/h4,10H,5-8H2,1-3H3,(H,13,14)/p-1/t10-/m1/s1

>  <InChI-Key>
QTKAFDMIHMMZNG-SNVBAGLBSA-M

>  <Smiles>
CC(C)(CC([O-])=O)C1CC=C(C)CC1

>  <Molecular Formula>
C12H19O2

$$$$
2,3-dimethyl-3-(4-methyl-3-pentenyl)-2-norbornanol
Actelion Java MolfileCreator 2.0

  0  0  0  0  0  0              0 V3000
M  V30 BEGIN CTAB
M  V30 COUNTS 16 17 0 0 0
M  V30 BEGIN ATOM
M  V30 1 O 0.0 0.0 0.0 0
M  V30 2 C 1.3749 0.0763 0.0 0
M  V30 3 C 1.2476 -1.2986 0.0 0
M  V30 4 C 2.5335 0.9039 0.0 0
M  V30 5 C 0.5092 1.4641 0.0 0
M  V30 6 C 2.4062 -1.9733 0.0 0
M  V30 7 C -0.3819 -1.2222 0.0 0
M  V30 8 C 0.3819 -2.4317 0.0 0
M  V30 9 C 1.9988 -0.471 0.0 0
M  V30 10 C 3.6921 0.2291 0.0 0
M  V30 11 C 3.5647 -1.1458 0.0 0
M  V30 12 C -1.2476 0.1655 0.0 0
M  V30 13 C -2.8772 0.2418 0.0 0
M  V30 14 C -3.743 1.6296 0.0 0
M  V30 15 C -5.3726 1.706 0.0 0
M  V30 16 C -3.1064 3.0682 0.0 0
M  V30 END ATOM
M  V30 BEGIN BOND
M  V30 1 1 1 2
M  V30 2 1 2 3
M  V30 3 1 2 4
M  V30 4 1 2 5
M  V30 5 1 3 6
M  V30 6 1 3 7
M  V30 7 1 3 8
M  V30 8 1 4 9
M  V30 9 1 4 10
M  V30 10 1 6 11
M  V30 11 1 7 12
M  V30 12 1 12 13
M  V30 13 2 13 14
M  V30 14 1 14 15
M  V30 15 1 14 16
M  V30 16 1 6 9
M  V30 17 1 10 11
M  V30 END BOND
M  V30 END CTAB
M  END
>  <Molecule Name>
2,3-dimethyl-3-(4-methyl-3-pentenyl)-2-norbornanol

>  <Molecule Name 2>
2,3-dimethyl-3-(4-methyl-3-pentenyl)-2-norbornanol

>  <Database>
Essential Oil Database

>  <InChI>
InChI=1S/C15H26O/c1-11(2)6-5-9-14(3)12-7-8-13(10-12)15(14,4)16/h6,12-13,16H,5,7-10H2,1-4H3

>  <InChI-Key>
BMYYECWIIFVCQD-UHFFFAOYSA-N

>  <Smiles>
CC(CCC=C(C)C)(C1CC2CC1)C2(C)O

>  <Molecular Formula>
C15H26O

$$$$
4-methyl-2-(3-methyl-2-butenyl)-furan
Actelion Java MolfileCreator 2.0

  0  0  0  0  0  0              0 V3000
M  V30 BEGIN CTAB
M  V30 COUNTS 11 11 0 0 0
M  V30 BEGIN ATOM
M  V30 1 O 0.0 0.0 0.0 0
M  V30 2 C -1.5868 0.1239 0.0 0
M  V30 3 C 0.3595 1.5124 0.0 0
M  V30 4 C -2.1942 1.6363 0.0 0
M  V30 5 C -2.5289 -0.9173 0.0 0
M  V30 6 C -0.9297 2.4545 0.0 0
M  V30 7 C -2.0082 -2.1198 0.0 0
M  V30 8 C -1.0537 4.0413 0.0 0
M  V30 9 C -2.9504 -3.1612 0.0 0
M  V30 10 C -2.4297 -4.3637 0.0 0
M  V30 11 C -4.5248 -2.876 0.0 0
M  V30 END ATOM
M  V30 BEGIN BOND
M  V30 1 1 1 2
M  V30 2 1 1 3
M  V30 3 2 2 4
M  V30 4 1 2 5
M  V30 5 2 3 6
M  V30 6 1 5 7
M  V30 7 1 6 8
M  V30 8 2 7 9
M  V30 9 1 9 10
M  V30 10 1 9 11
M  V30 11 1 4 6
M  V30 END BOND
M  V30 END CTAB
M  END
>  <Molecule Name>
4-methyl-2-(3-methyl-2-butenyl)-furan

>  <Molecule Name 2>
4-methyl-2-(3-methyl-2-butenyl)-furan

>  <Database>
Essential Oil Database

>  <InChI>
InChI=1S/C10H14O/c1-8(2)4-5-10-6-9(3)7-11-10/h4,6-7H,5H2,1-3H3

>  <InChI-Key>
MFSVECXXOVANJX-UHFFFAOYSA-N

>  <Smiles>
CC(C)=CCc1cc(C)c[o]1

>  <Molecular Formula>
C10H14O

$$$$
oxacyclotridec-10-en-2-one
Actelion Java MolfileCreator 2.0

  0  0  0  0  0  0              0 V3000
M  V30 BEGIN CTAB
M  V30 COUNTS 14 14 0 0 0
M  V30 BEGIN ATOM
M  V30 1 O 0.0 0.0 0.0 0
M  V30 2 C 0.5408 -1.3036 0.0 0
M  V30 3 O -0.3467 -2.5101 0.0 0
M  V30 4 C 1.9415 -1.5393 0.0 0
M  V30 5 C -2.1218 -3.0094 0.0 0
M  V30 6 C 1.9554 -2.9816 0.0 0
M  V30 7 C -2.6349 -4.4101 0.0 0
M  V30 8 C 3.0094 -4.0495 0.0 0
M  V30 9 C -1.6364 -5.3115 0.0 0
M  V30 10 C 2.4963 -5.4502 0.0 0
M  V30 11 C -2.1495 -6.7122 0.0 0
M  V30 12 C 0.8459 -5.8247 0.0 0
M  V30 13 C -1.151 -7.6137 0.0 0
M  V30 14 C 0.3328 -7.2254 0.0 0
M  V30 END ATOM
M  V30 BEGIN BOND
M  V30 1 2 1 2
M  V30 2 1 2 3
M  V30 3 1 2 4
M  V30 4 1 3 5
M  V30 5 1 4 6
M  V30 6 1 5 7
M  V30 7 1 6 8
M  V30 8 1 7 9
M  V30 9 1 8 10
M  V30 10 2 9 11
M  V30 11 1 10 12
M  V30 12 1 11 13
M  V30 13 1 12 14
M  V30 14 1 13 14
M  V30 END BOND
M  V30 END CTAB
M  END
>  <Molecule Name>
oxacyclotridec-10-en-2-one

>  <Molecule Name 2>
oxacyclotridec-10-en-2-one

>  <Database>
Essential Oil Database

>  <InChI>
InChI=1S/C12H20O2/c13-12-10-8-6-4-2-1-3-5-7-9-11-14-12/h5,7H,1-4,6,8-11H2/b7-5+

>  <InChI-Key>
FZKPUQQWULXMCD-FNORWQNLSA-N

>  <Smiles>
O=C1OCC/C=C/CCCCCCC1

>  <Molecular Formula>
C12H20O2

$$$$
2-tridecanol
Actelion Java MolfileCreator 2.0

  0  0  0  0  0  0              0 V3000
M  V30 BEGIN CTAB
M  V30 COUNTS 14 13 0 0 0
M  V30 BEGIN ATOM
M  V30 1 O 0.0 0.0 0.0 0
M  V30 2 C -0.1339 1.7147 0.0 0 CFG=2
M  V30 3 C 1.085 2.5988 0.0 0
M  V30 4 C -1.6209 2.5988 0.0 0
M  V30 5 C 2.3041 1.8888 0.0 0
M  V30 6 C 3.5231 2.7596 0.0 0
M  V30 7 C 4.7422 2.0496 0.0 0
M  V30 8 C 5.9612 2.9203 0.0 0
M  V30 9 C 7.1803 2.2103 0.0 0
M  V30 10 C 8.3993 3.0811 0.0 0
M  V30 11 C 9.6184 2.3711 0.0 0
M  V30 12 C 10.8374 3.2418 0.0 0
M  V30 13 C 12.0565 2.5318 0.0 0
M  V30 14 C 13.2756 3.4026 0.0 0
M  V30 END ATOM
M  V30 BEGIN BOND
M  V30 1 1 2 1 CFG=1
M  V30 2 1 2 3
M  V30 3 1 2 4
M  V30 4 1 3 5
M  V30 5 1 5 6
M  V30 6 1 6 7
M  V30 7 1 7 8
M  V30 8 1 8 9
M  V30 9 1 9 10
M  V30 10 1 10 11
M  V30 11 1 11 12
M  V30 12 1 12 13
M  V30 13 1 13 14
M  V30 END BOND
M  V30 BEGIN COLLECTION
M  V30 MDLV30/STERAC1 ATOMS=(1 2)
M  V30 END COLLECTION
M  V30 END CTAB
M  END
>  <Molecule Name>
2-tridecanol

>  <Molecule Name 2>
2-tridecanol

>  <Database>
Essential Oil Database

>  <InChI>
InChI=1S/C13H28O/c1-3-4-5-6-7-8-9-10-11-12-13(2)14/h13-14H,3-12H2,1-2H3/t13-/m0/s1

>  <InChI-Key>
HKOLRKVMHVYNGG-ZDUSSCGKSA-N

>  <Smiles>
CCCCCCCCCCCC(C)O

>  <Molecular Formula>
C13H28O

$$$$
1,2,4-trihydroxy-p-menthane
Actelion Java MolfileCreator 2.0

  0  0  0  0  0  0              0 V3000
M  V30 BEGIN CTAB
M  V30 COUNTS 13 13 0 0 0
M  V30 BEGIN ATOM
M  V30 1 O 0.0 0.0 0.0 0
M  V30 2 C 0.6243 1.4109 0.0 0
M  V30 3 C 1.2486 0.2497 0.0 0
M  V30 4 C -0.7616 2.235 0.0 0
M  V30 5 C 1.7606 2.235 0.0 0
M  V30 6 C 2.5971 0.3246 0.0 0
M  V30 7 C 0.3995 -0.8615 0.0 0
M  V30 8 C -0.8865 3.8333 0.0 0
M  V30 9 C 1.6357 3.8333 0.0 0
M  V30 10 O -2.2725 4.6449 0.0 0
M  V30 11 C 0.2497 4.6449 0.0 0
M  V30 12 O 1.0363 5.8686 0.0 0
M  V30 13 C -0.7866 5.8686 0.0 0
M  V30 END ATOM
M  V30 BEGIN BOND
M  V30 1 1 1 2
M  V30 2 1 2 3
M  V30 3 1 2 4
M  V30 4 1 2 5
M  V30 5 1 3 6
M  V30 6 1 3 7
M  V30 7 1 4 8
M  V30 8 1 5 9
M  V30 9 1 8 10
M  V30 10 1 8 11
M  V30 11 1 11 12
M  V30 12 1 11 13
M  V30 13 1 9 11
M  V30 END BOND
M  V30 END CTAB
M  END
>  <Molecule Name>
1,2,4-trihydroxy-p-menthane

>  <Molecule Name 2>
1,2,4-trihydroxy-p-menthane

>  <Database>
Essential Oil Database

>  <InChI>
InChI=1S/C10H20O3/c1-7(2)10(13)5-4-9(3,12)8(11)6-10/h7-8,11-13H,4-6H2,1-3H3

>  <InChI-Key>
RKROZYQLIWCOBD-UHFFFAOYSA-N

>  <Smiles>
CC(C)C(CCC1(C)O)(CC1O)O

>  <Molecular Formula>
C10H20O3

$$$$
3,7-dimethyl-1,5-octadiene-3,7-diol
Actelion Java MolfileCreator 2.0

  0  0  0  0  0  0              0 V3000
M  V30 BEGIN CTAB
M  V30 COUNTS 12 11 0 0 0
M  V30 BEGIN ATOM
M  V30 1 O 0.0 0.0 0.0 0
M  V30 2 C -0.1294 -1.398 0.0 0 CFG=2
M  V30 3 C 1.2686 -1.2686 0.0 0
M  V30 4 C -1.7864 -1.2686 0.0 0
M  V30 5 C -0.2589 -2.7961 0.0 0
M  V30 6 C 1.9547 0.1682 0.0 0
M  V30 7 C -2.6278 -2.4466 0.0 0
M  V30 8 C -4.2848 -2.3171 0.0 0
M  V30 9 C -5.1263 -3.4952 0.0 0
M  V30 10 O -6.5632 -2.6537 0.0 0
M  V30 11 C -5.9677 -4.6732 0.0 0
M  V30 12 C -3.9482 -4.1813 0.0 0
M  V30 END ATOM
M  V30 BEGIN BOND
M  V30 1 1 2 1 CFG=1
M  V30 2 1 2 3
M  V30 3 1 2 4
M  V30 4 1 2 5
M  V30 5 2 3 6
M  V30 6 1 4 7
M  V30 7 2 7 8
M  V30 8 1 8 9
M  V30 9 1 9 10
M  V30 10 1 9 11
M  V30 11 1 9 12
M  V30 END BOND
M  V30 BEGIN COLLECTION
M  V30 MDLV30/STERAC1 ATOMS=(1 2)
M  V30 END COLLECTION
M  V30 END CTAB
M  END
>  <Molecule Name>
3,7-dimethyl-1,5-octadiene-3,7-diol

>  <Molecule Name 2>
3,7-dimethyl-1,5-octadiene-3,7-diol

>  <Database>
Essential Oil Database

>  <InChI>
InChI=1S/C10H18O2/c1-5-10(4,12)8-6-7-9(2,3)11/h5-7,11-12H,1,8H2,2-4H3/b7-6+/t10-/m1/s1

>  <InChI-Key>
QEOHJVNDENHRCH-VQCYPWCPSA-N

>  <Smiles>
CC(C)(/C=C/CC(C)(C=C)O)O

>  <Molecular Formula>
C10H18O2

$$$$
3,7-dimethyl-1-octene-3,7-diol
Actelion Java MolfileCreator 2.0

  0  0  0  0  0  0              0 V3000
M  V30 BEGIN CTAB
M  V30 COUNTS 12 11 0 0 0
M  V30 BEGIN ATOM
M  V30 1 O 0.0 0.0 0.0 0
M  V30 2 C -0.7914 1.3725 0.0 0 CFG=2
M  V30 3 C -2.1639 0.7048 0.0 0
M  V30 4 C 0.3338 2.1763 0.0 0
M  V30 5 C -1.5951 2.7451 0.0 0
M  V30 6 C -2.2876 -0.6306 0.0 0
M  V30 7 C 0.2102 3.7591 0.0 0
M  V30 8 C 1.3354 4.5629 0.0 0
M  V30 9 C 1.2118 6.1457 0.0 0
M  V30 10 O 2.5473 6.2693 0.0 0
M  V30 11 C 1.0881 7.7285 0.0 0
M  V30 12 C -0.3709 6.2693 0.0 0
M  V30 END ATOM
M  V30 BEGIN BOND
M  V30 1 1 1 2
M  V30 2 1 2 3
M  V30 3 1 2 4
M  V30 4 1 2 5 CFG=1
M  V30 5 2 3 6
M  V30 6 1 4 7
M  V30 7 1 7 8
M  V30 8 1 8 9
M  V30 9 1 9 10
M  V30 10 1 9 11
M  V30 11 1 9 12
M  V30 END BOND
M  V30 BEGIN COLLECTION
M  V30 MDLV30/STERAC1 ATOMS=(1 2)
M  V30 END COLLECTION
M  V30 END CTAB
M  END
>  <Molecule Name>
3,7-dimethyl-1-octene-3,7-diol

>  <Molecule Name 2>
3,7-dimethyl-1-octene-3,7-diol

>  <Database>
Essential Oil Database

>  <InChI>
InChI=1S/C10H20O2/c1-5-10(4,12)8-6-7-9(2,3)11/h5,11-12H,1,6-8H2,2-4H3/t10-/m1/s1

>  <InChI-Key>
SRPFYGUVQUDURC-SNVBAGLBSA-N

>  <Smiles>
CC(C)(CCCC(C)(C=C)O)O

>  <Molecular Formula>
C10H20O2

$$$$
p-menthane-1,8-diol hydrate
Actelion Java MolfileCreator 2.0

  0  0  0  0  0  0              0 V3000
M  V30 BEGIN CTAB
M  V30 COUNTS 13 12 0 0 0
M  V30 BEGIN ATOM
M  V30 1 O 0.0 0.0 0.0 0
M  V30 2 C -1.0907 -1.025 0.0 0
M  V30 3 C 0.1051 -1.7216 0.0 0
M  V30 4 C -2.5495 -1.7216 0.0 0
M  V30 5 C -2.1815 0.2628 0.0 0
M  V30 6 C -0.0262 -3.1409 0.0 0
M  V30 7 C -2.6809 -3.1409 0.0 0
M  V30 8 C -1.485 -3.8374 0.0 0
M  V30 9 C -1.6164 -5.2568 0.0 0
M  V30 10 O -3.2986 -5.1253 0.0 0
M  V30 11 C -1.7478 -6.6761 0.0 0
M  V30 12 C -0.1971 -5.1253 0.0 0
M  V30 13 O -7.3595 -2.6284 0.0 0
M  V30 END ATOM
M  V30 BEGIN BOND
M  V30 1 1 1 2
M  V30 2 1 2 3
M  V30 3 1 2 4
M  V30 4 1 2 5
M  V30 5 1 3 6
M  V30 6 1 4 7
M  V30 7 1 6 8
M  V30 8 1 8 9
M  V30 9 1 9 10
M  V30 10 1 9 11
M  V30 11 1 9 12
M  V30 12 1 7 8
M  V30 END BOND
M  V30 END CTAB
M  END
>  <Molecule Name>
p-menthane-1,8-diol hydrate

>  <Molecule Name 2>
p-menthane-1,8-diol hydrate

>  <Database>
Essential Oil Database

>  <InChI>
InChI=1S/C10H20O2.H2O/c1-9(2,11)8-4-6-10(3,12)7-5-8;/h8,11-12H,4-7H2,1-3H3;1H2

>  <InChI-Key>
JGKJMBOJWVAMIJ-UHFFFAOYSA-N

>  <Smiles>
CC(C)(C(CC1)CCC1(C)O)O.O

>  <Molecular Formula>
C10H20O2.H2O

$$$$
pellitorine
Actelion Java MolfileCreator 2.0

  0  0  0  0  0  0              0 V3000
M  V30 BEGIN CTAB
M  V30 COUNTS 16 15 0 0 0
M  V30 BEGIN ATOM
M  V30 1 O 0.0 0.0 0.0 0
M  V30 2 C -0.1092 -1.366 0.0 0
M  V30 3 N 1.0709 -1.9452 0.0 0
M  V30 4 C -1.5081 -1.9452 0.0 0
M  V30 5 C 2.2512 -1.06 0.0 0
M  V30 6 C -2.9069 -1.06 0.0 0
M  V30 7 C 3.4314 -1.6392 0.0 0
M  V30 8 C -4.3057 -1.6392 0.0 0
M  V30 9 C 4.6117 -0.7649 0.0 0
M  V30 10 C 3.3222 -3.0052 0.0 0
M  V30 11 C -5.7045 -0.7649 0.0 0
M  V30 12 C -7.1033 -1.3441 0.0 0
M  V30 13 C -8.5022 -0.4589 0.0 0
M  V30 14 C -9.901 -1.0381 0.0 0
M  V30 15 C -11.2998 -0.1529 0.0 0
M  V30 16 C -12.6986 -0.7321 0.0 0
M  V30 END ATOM
M  V30 BEGIN BOND
M  V30 1 2 1 2
M  V30 2 1 2 3
M  V30 3 1 2 4
M  V30 4 1 3 5
M  V30 5 2 4 6
M  V30 6 1 5 7
M  V30 7 1 6 8
M  V30 8 1 7 9
M  V30 9 1 7 10
M  V30 10 2 8 11
M  V30 11 1 11 12
M  V30 12 1 12 13
M  V30 13 1 13 14
M  V30 14 1 14 15
M  V30 15 1 15 16
M  V30 END BOND
M  V30 END CTAB
M  END
>  <Molecule Name>
pellitorine

>  <Molecule Name 2>
pellitorine

>  <Database>
Essential Oil Database

>  <InChI>
InChI=1S/C14H25NO/c1-4-5-6-7-8-9-10-11-14(16)15-12-13(2)3/h8-11,13H,4-7,12H2,1-3H3,(H,15,16)/b9-8+,11-10+

>  <InChI-Key>
MAGQQZHFHJDIRE-BNFZFUHLSA-N

>  <Smiles>
CCCCC/C=C/C=C/C(NCC(C)C)=O

>  <Molecular Formula>
C14H25NO

$$$$
1,2-dimethylcyclohexane
Actelion Java MolfileCreator 2.0

  0  0  0  0  0  0              0 V3000
M  V30 BEGIN CTAB
M  V30 COUNTS 8 8 0 0 0
M  V30 BEGIN ATOM
M  V30 1 C 0.0 0.0 0.0 0
M  V30 2 C 1.195 -0.696 0.0 0
M  V30 3 C -1.4576 -0.696 0.0 0
M  V30 4 C -0.1313 1.6809 0.0 0
M  V30 5 C 1.0637 -2.1143 0.0 0
M  V30 6 C 2.39 0.1575 0.0 0
M  V30 7 C -1.589 -2.1143 0.0 0
M  V30 8 C -0.3939 -2.8103 0.0 0
M  V30 END ATOM
M  V30 BEGIN BOND
M  V30 1 1 1 2
M  V30 2 1 1 3
M  V30 3 1 1 4
M  V30 4 1 2 5
M  V30 5 1 2 6
M  V30 6 1 3 7
M  V30 7 1 5 8
M  V30 8 1 7 8
M  V30 END BOND
M  V30 END CTAB
M  END
>  <Molecule Name>
1,2-dimethylcyclohexane

>  <Molecule Name 2>
1,2-dimethylcyclohexane

>  <Database>
Essential Oil Database

>  <InChI>
InChI=1S/C8H16/c1-7-5-3-4-6-8(7)2/h7-8H,3-6H2,1-2H3

>  <InChI-Key>
KVZJLSYJROEPSQ-UHFFFAOYSA-N

>  <Smiles>
CC1C(C)CCCC1

>  <Molecular Formula>
C8H16

$$$$
2-heptadecanol
Actelion Java MolfileCreator 2.0

  0  0  0  0  0  0              0 V3000
M  V30 BEGIN CTAB
M  V30 COUNTS 18 17 0 0 0
M  V30 BEGIN ATOM
M  V30 1 O 0.0 0.0 0.0 0
M  V30 2 C -0.1347 1.7248 0.0 0 CFG=2
M  V30 3 C 1.0914 2.6007 0.0 0
M  V30 4 C -1.6304 2.6007 0.0 0
M  V30 5 C 2.3177 1.873 0.0 0
M  V30 6 C 3.5439 2.7489 0.0 0
M  V30 7 C 4.7701 2.0212 0.0 0
M  V30 8 C 5.9964 2.8971 0.0 0
M  V30 9 C 7.2226 2.1694 0.0 0
M  V30 10 C 8.4489 3.0453 0.0 0
M  V30 11 C 9.6751 2.3177 0.0 0
M  V30 12 C 10.9013 3.1936 0.0 0
M  V30 13 C 12.1276 2.4659 0.0 0
M  V30 14 C 13.3538 3.3418 0.0 0
M  V30 15 C 14.58 2.6141 0.0 0
M  V30 16 C 15.8063 3.49 0.0 0
M  V30 17 C 17.0325 2.7624 0.0 0
M  V30 18 C 18.2588 3.6382 0.0 0
M  V30 END ATOM
M  V30 BEGIN BOND
M  V30 1 1 2 1 CFG=1
M  V30 2 1 2 3
M  V30 3 1 2 4
M  V30 4 1 3 5
M  V30 5 1 5 6
M  V30 6 1 6 7
M  V30 7 1 7 8
M  V30 8 1 8 9
M  V30 9 1 9 10
M  V30 10 1 10 11
M  V30 11 1 11 12
M  V30 12 1 12 13
M  V30 13 1 13 14
M  V30 14 1 14 15
M  V30 15 1 15 16
M  V30 16 1 16 17
M  V30 17 1 17 18
M  V30 END BOND
M  V30 BEGIN COLLECTION
M  V30 MDLV30/STERAC1 ATOMS=(1 2)
M  V30 END COLLECTION
M  V30 END CTAB
M  END
>  <Molecule Name>
2-heptadecanol

>  <Molecule Name 2>
2-heptadecanol

>  <Database>
Essential Oil Database

>  <InChI>
InChI=1S/C17H36O/c1-3-4-5-6-7-8-9-10-11-12-13-14-15-16-17(2)18/h17-18H,3-16H2,1-2H3/t17-/m0/s1

>  <InChI-Key>
ZNYQHFLBAPNPRC-KRWDZBQOSA-N

>  <Smiles>
CCCCCCCCCCCCCCCC(C)O

>  <Molecular Formula>
C17H36O

$$$$
2-hexadecanol
Actelion Java MolfileCreator 2.0

  0  0  0  0  0  0              0 V3000
M  V30 BEGIN CTAB
M  V30 COUNTS 17 16 0 0 0
M  V30 BEGIN ATOM
M  V30 1 O 0.0 0.0 0.0 0
M  V30 2 C -0.117 -1.4626 0.0 0 CFG=2
M  V30 3 C 1.1467 -2.0828 0.0 0
M  V30 4 C -1.6147 -2.0828 0.0 0
M  V30 5 C 2.4104 -1.135 0.0 0
M  V30 6 C 3.6741 -1.7551 0.0 0
M  V30 7 C 4.9379 -0.8073 0.0 0
M  V30 8 C 6.2016 -1.4275 0.0 0
M  V30 9 C 7.4653 -0.4797 0.0 0
M  V30 10 C 8.7291 -1.0999 0.0 0
M  V30 11 C 9.9928 -0.1521 0.0 0
M  V30 12 C 11.2565 -0.7722 0.0 0
M  V30 13 C 12.5203 0.1755 0.0 0
M  V30 14 C 13.784 -0.4446 0.0 0
M  V30 15 C 15.0477 0.5031 0.0 0
M  V30 16 C 16.3115 -0.117 0.0 0
M  V30 17 C 17.5752 0.8307 0.0 0
M  V30 END ATOM
M  V30 BEGIN BOND
M  V30 1 1 2 1 CFG=3
M  V30 2 1 2 3
M  V30 3 1 2 4
M  V30 4 1 3 5
M  V30 5 1 5 6
M  V30 6 1 6 7
M  V30 7 1 7 8
M  V30 8 1 8 9
M  V30 9 1 9 10
M  V30 10 1 10 11
M  V30 11 1 11 12
M  V30 12 1 12 13
M  V30 13 1 13 14
M  V30 14 1 14 15
M  V30 15 1 15 16
M  V30 16 1 16 17
M  V30 END BOND
M  V30 BEGIN COLLECTION
M  V30 MDLV30/STERAC1 ATOMS=(1 2)
M  V30 END COLLECTION
M  V30 END CTAB
M  END
>  <Molecule Name>
2-hexadecanol

>  <Molecule Name 2>
2-hexadecanol

>  <Database>
Essential Oil Database

>  <InChI>
InChI=1S/C16H34O/c1-3-4-5-6-7-8-9-10-11-12-13-14-15-16(2)17/h16-17H,3-15H2,1-2H3/t16-/m0/s1

>  <InChI-Key>
FVDRFBGMOWJEOR-INIZCTEOSA-N

>  <Smiles>
CCCCCCCCCCCCCCC(C)O

>  <Molecular Formula>
C16H34O

$$$$
(z,z)-1,5-cyclodecadiene
Actelion Java MolfileCreator 2.0

  0  0  0  0  0  0              0 V3000
M  V30 BEGIN CTAB
M  V30 COUNTS 10 10 0 0 0
M  V30 BEGIN ATOM
M  V30 1 C 0.0 0.0 0.0 0
M  V30 2 C -1.4574 -0.2983 0.0 0
M  V30 3 C 0.2409 1.4689 0.0 0
M  V30 4 C -2.5476 0.7574 0.0 0
M  V30 5 C -0.8492 2.5246 0.0 0
M  V30 6 C -2.3066 2.2263 0.0 0
M  V30 7 C -0.6082 3.9935 0.0 0
M  V30 8 C -3.3968 3.282 0.0 0
M  V30 9 C -1.6984 5.0493 0.0 0
M  V30 10 C -3.1558 4.7509 0.0 0
M  V30 END ATOM
M  V30 BEGIN BOND
M  V30 1 2 1 2
M  V30 2 1 1 3
M  V30 3 1 2 4
M  V30 4 1 3 5
M  V30 5 1 4 6
M  V30 6 1 5 7
M  V30 7 1 6 8
M  V30 8 2 7 9
M  V30 9 1 8 10
M  V30 10 1 9 10
M  V30 END BOND
M  V30 END CTAB
M  END
>  <Molecule Name>
(z,z)-1,5-cyclodecadiene

>  <Molecule Name 2>
(z,z)-1,5-cyclodecadiene

>  <Database>
Essential Oil Database

>  <InChI>
InChI=1S/C10H16/c1-2-4-6-8-10-9-7-5-3-1/h1-2,7,9H,3-6,8,10H2/b2-1-,9-7-

>  <InChI-Key>
RDAFFINKUCJOJK-NQOXHWNZSA-N

>  <Smiles>
C1C/C=C\CC/C=C\CC1

>  <Molecular Formula>
C10H16

$$$$
2-decanol
Actelion Java MolfileCreator 2.0

  0  0  0  0  0  0              0 V3000
M  V30 BEGIN CTAB
M  V30 COUNTS 11 10 0 0 0
M  V30 BEGIN ATOM
M  V30 1 O 0.0 0.0 0.0 0
M  V30 2 C -0.1159 -1.4498 0.0 0 CFG=2
M  V30 3 C 1.1366 -2.0993 0.0 0
M  V30 4 C -1.6006 -2.0993 0.0 0
M  V30 5 C 2.3893 -1.1482 0.0 0
M  V30 6 C 3.642 -1.7862 0.0 0
M  V30 7 C 4.8947 -0.8351 0.0 0
M  V30 8 C 6.1473 -1.4846 0.0 0
M  V30 9 C 7.4 -0.5335 0.0 0
M  V30 10 C 8.6527 -1.1714 0.0 0
M  V30 11 C 9.9054 -0.2203 0.0 0
M  V30 END ATOM
M  V30 BEGIN BOND
M  V30 1 1 2 1 CFG=3
M  V30 2 1 2 3
M  V30 3 1 2 4
M  V30 4 1 3 5
M  V30 5 1 5 6
M  V30 6 1 6 7
M  V30 7 1 7 8
M  V30 8 1 8 9
M  V30 9 1 9 10
M  V30 10 1 10 11
M  V30 END BOND
M  V30 BEGIN COLLECTION
M  V30 MDLV30/STERAC1 ATOMS=(1 2)
M  V30 END COLLECTION
M  V30 END CTAB
M  END
>  <Molecule Name>
2-decanol

>  <Molecule Name 2>
2-decanol

>  <Database>
Essential Oil Database

>  <InChI>
InChI=1S/C10H22O/c1-3-4-5-6-7-8-9-10(2)11/h10-11H,3-9H2,1-2H3/t10-/m0/s1

>  <InChI-Key>
ACUZDYFTRHEKOS-JTQLQIEISA-N

>  <Smiles>
CCCCCCCCC(C)O

>  <Molecular Formula>
C10H22O

$$$$
2-undecanylacetate
Actelion Java MolfileCreator 2.0

  0  0  0  0  0  0              0 V3000
M  V30 BEGIN CTAB
M  V30 COUNTS 15 14 0 0 0
M  V30 BEGIN ATOM
M  V30 1 O 0.0 0.0 0.0 0
M  V30 2 C -0.116 -1.4501 0.0 0
M  V30 3 O -1.6009 -2.1346 0.0 0 CHG=-1
M  V30 4 C 1.1369 -2.1346 0.0 0
M  V30 5 C 2.3898 -1.1949 0.0 0
M  V30 6 C 3.6428 -1.833 0.0 0
M  V30 7 C 4.8958 -0.8933 0.0 0
M  V30 8 C 6.1487 -1.5313 0.0 0
M  V30 9 C 7.4017 -0.5916 0.0 0
M  V30 10 C 8.6546 -1.2645 0.0 0
M  V30 11 C 9.9076 -0.3248 0.0 0
M  V30 12 C 11.1605 -1.0441 0.0 0
M  V30 13 C 12.4135 -0.1044 0.0 0
M  V30 14 C 13.6664 -0.7424 0.0 0
M  V30 15 C 14.9194 0.1972 0.0 0
M  V30 END ATOM
M  V30 BEGIN BOND
M  V30 1 2 1 2
M  V30 2 1 2 3
M  V30 3 1 2 4
M  V30 4 1 4 5
M  V30 5 1 5 6
M  V30 6 1 6 7
M  V30 7 1 7 8
M  V30 8 1 8 9
M  V30 9 1 9 10
M  V30 10 1 10 11
M  V30 11 1 11 12
M  V30 12 1 12 13
M  V30 13 1 13 14
M  V30 14 1 14 15
M  V30 END BOND
M  V30 END CTAB
M  END
>  <Molecule Name>
2-undecanylacetate

>  <Molecule Name 2>
2-undecanylacetate

>  <Database>
Essential Oil Database

>  <InChI>
InChI=1S/C13H26O2/c1-2-3-4-5-6-7-8-9-10-11-12-13(14)15/h2-12H2,1H3,(H,14,15)/p-1

>  <InChI-Key>
SZHOJFHSIKHZHA-UHFFFAOYSA-M

>  <Smiles>
CCCCCCCCCCCCC([O-])=O

>  <Molecular Formula>
C13H25O2

$$$$
berol
Actelion Java MolfileCreator 2.0

  0  0  0  0  0  0              0 V3000
M  V30 BEGIN CTAB
M  V30 COUNTS 20 22 0 0 0
M  V30 BEGIN ATOM
M  V30 1 O 0.0 0.0 0.0 0
M  V30 2 C -0.13 1.6641 0.0 0
M  V30 3 O 1.053 2.5091 0.0 0
M  V30 4 C -1.5731 2.5091 0.0 0
M  V30 5 C 2.2361 1.8201 0.0 0
M  V30 6 C -3.0162 1.8201 0.0 0
M  V30 7 C -1.7031 4.1732 0.0 0
M  V30 8 C 3.4192 2.6651 0.0 0
M  V30 9 C 2.1061 0.416 0.0 0
M  V30 10 O -3.1462 0.416 0.0 0
M  V30 11 C -4.4593 2.6651 0.0 0
M  V30 12 C -3.1462 5.0053 0.0 0
M  V30 13 C 4.6023 1.9761 0.0 0
M  V30 14 C 3.2892 -0.286 0.0 0
M  V30 15 C -4.5893 4.3293 0.0 0
M  V30 16 C 4.4723 0.572 0.0 0
M  V30 17 C 5.7854 2.8212 0.0 0
M  V30 18 C 5.6554 -0.13 0.0 0
M  V30 19 C 6.9684 2.1321 0.0 0
M  V30 20 C 6.8384 0.715 0.0 0
M  V30 END ATOM
M  V30 BEGIN BOND
M  V30 1 2 1 2
M  V30 2 1 2 3
M  V30 3 1 2 4
M  V30 4 1 3 5
M  V30 5 2 4 6
M  V30 6 1 4 7
M  V30 7 2 5 8
M  V30 8 1 5 9
M  V30 9 1 6 10
M  V30 10 1 6 11
M  V30 11 2 7 12
M  V30 12 1 8 13
M  V30 13 2 9 14
M  V30 14 2 11 15
M  V30 15 1 13 16
M  V30 16 2 13 17
M  V30 17 2 16 18
M  V30 18 1 17 19
M  V30 19 1 18 20
M  V30 20 1 12 15
M  V30 21 1 14 16
M  V30 22 2 19 20
M  V30 END BOND
M  V30 END CTAB
M  END
>  <Molecule Name>
berol

>  <Molecule Name 2>
berol

>  <Database>
Essential Oil Database

>  <InChI>
InChI=1S/C17H12O3/c18-16-8-4-3-7-15(16)17(19)20-14-10-9-12-5-1-2-6-13(12)11-14/h1-11,18H

>  <InChI-Key>
ZBJVLWIYKOAYQH-UHFFFAOYSA-N

>  <Smiles>
Oc(cccc1)c1C(Oc1cc2ccccc2cc1)=O

>  <Molecular Formula>
C17H12O3

$$$$
methyl farnesate
Actelion Java MolfileCreator 2.0

  0  0  0  0  0  0              0 V3000
M  V30 BEGIN CTAB
M  V30 COUNTS 18 17 0 0 0
M  V30 BEGIN ATOM
M  V30 1 O 0.0 0.0 0.0 0
M  V30 2 C 0.6639 -1.14 0.0 0
M  V30 3 O 2.0169 -1.0147 0.0 0
M  V30 4 C -0.1378 -2.28 0.0 0
M  V30 5 C 2.6934 0.3758 0.0 0
M  V30 6 C -1.7413 -2.1547 0.0 0
M  V30 7 C -2.5556 -3.2948 0.0 0
M  V30 8 C -2.5556 -0.7642 0.0 0
M  V30 9 C -4.1592 -3.1695 0.0 0
M  V30 10 C -4.9735 -4.3095 0.0 0
M  V30 11 C -6.5771 -4.1843 0.0 0
M  V30 12 C -7.3914 -5.3243 0.0 0
M  V30 13 C -7.3914 -2.7937 0.0 0
M  V30 14 C -8.995 -5.199 0.0 0
M  V30 15 C -9.8093 -6.3391 0.0 0
M  V30 16 C -11.4129 -6.2138 0.0 0
M  V30 17 C -12.2272 -7.3538 0.0 0
M  V30 18 C -12.2272 -4.8232 0.0 0
M  V30 END ATOM
M  V30 BEGIN BOND
M  V30 1 2 1 2
M  V30 2 1 2 3
M  V30 3 1 2 4
M  V30 4 1 3 5
M  V30 5 2 4 6
M  V30 6 1 6 7
M  V30 7 1 6 8
M  V30 8 1 7 9
M  V30 9 1 9 10
M  V30 10 2 10 11
M  V30 11 1 11 12
M  V30 12 1 11 13
M  V30 13 1 12 14
M  V30 14 1 14 15
M  V30 15 2 15 16
M  V30 16 1 16 17
M  V30 17 1 16 18
M  V30 END BOND
M  V30 END CTAB
M  END
>  <Molecule Name>
methyl farnesate

>  <Molecule Name 2>
methyl farnesate

>  <Database>
Essential Oil Database

>  <InChI>
InChI=1S/C16H26O2/c1-13(2)8-6-9-14(3)10-7-11-15(4)12-16(17)18-5/h8,10,12H,6-7,9,11H2,1-5H3/b14-10+,15-12+

>  <InChI-Key>
NWKXNIPBVLQYAB-VDQVFBMKSA-N

>  <Smiles>
CC(C)=CCC/C(\C)=C/CC/C(\C)=C/C(OC)=O

>  <Molecular Formula>
C16H26O2

$$$$
beta-sinensal
Actelion Java MolfileCreator 2.0

  0  0  0  0  0  0              0 V3000
M  V30 BEGIN CTAB
M  V30 COUNTS 16 15 0 0 0
M  V30 BEGIN ATOM
M  V30 1 O 0.0 0.0 0.0 0
M  V30 2 C 1.2154 -0.7079 0.0 0
M  V30 3 C 2.4309 0.1469 0.0 0
M  V30 4 C 3.6464 -0.5609 0.0 0
M  V30 5 C 2.2973 1.8565 0.0 0
M  V30 6 C 4.8618 0.2938 0.0 0
M  V30 7 C 6.0773 -0.414 0.0 0
M  V30 8 C 7.2928 0.4407 0.0 0
M  V30 9 C 8.5082 -0.2671 0.0 0
M  V30 10 C 7.1592 2.1504 0.0 0
M  V30 11 C 9.7237 0.5876 0.0 0
M  V30 12 C 10.9392 -0.1202 0.0 0
M  V30 13 C 12.1546 0.7346 0.0 0
M  V30 14 C 13.3701 0.0267 0.0 0
M  V30 15 C 12.0211 2.4442 0.0 0
M  V30 16 C 14.5856 0.8815 0.0 0
M  V30 END ATOM
M  V30 BEGIN BOND
M  V30 1 2 1 2
M  V30 2 1 2 3
M  V30 3 2 3 4
M  V30 4 1 3 5
M  V30 5 1 4 6
M  V30 6 1 6 7
M  V30 7 1 7 8
M  V30 8 2 8 9
M  V30 9 1 8 10
M  V30 10 1 9 11
M  V30 11 1 11 12
M  V30 12 1 12 13
M  V30 13 1 13 14
M  V30 14 2 13 15
M  V30 15 2 14 16
M  V30 END BOND
M  V30 END CTAB
M  END
>  <Molecule Name>
beta-sinensal

>  <Molecule Name 2>
beta-sinensal

>  <Database>
Essential Oil Database

>  <InChI>
InChI=1S/C15H22O/c1-5-13(2)8-6-9-14(3)10-7-11-15(4)12-16/h5,9,11-12H,1-2,6-8,10H2,3-4H3/b14-9+,15-11+

>  <InChI-Key>
NOPLRNXKHZRXHT-YFVJMOTDSA-N

>  <Smiles>
C/C(\CC/C=C(\C)/C=O)=C\CCC(C=C)=C

>  <Molecular Formula>
C15H22O

$$$$
esters
Actelion Java MolfileCreator 2.0

  0  0  0  0  0  0              0 V3000
M  V30 BEGIN CTAB
M  V30 COUNTS 5 4 0 0 0
M  V30 BEGIN ATOM
M  V30 1 O 0.0 0.0 0.0 0
M  V30 2 C 1.3999 0.1119 0.0 0
M  V30 3 O 1.9935 1.5455 0.0 0
M  V30 4 ? 1.9935 -1.0975 0.0 0
M  V30 5 ? 1.0863 2.9791 0.0 0
M  V30 END ATOM
M  V30 BEGIN BOND
M  V30 1 2 1 2
M  V30 2 1 2 3
M  V30 3 1 2 4
M  V30 4 1 3 5
M  V30 END BOND
M  V30 END CTAB
M  END
>  <Molecule Name>
esters

>  <Molecule Name 2>
esters

>  <Database>
Essential Oil Database

>  <InChI>
Invalid element(s): Zz; Polymer-unrelated pseudoatoms are not allowed

>  <InChI-Key>
Invalid element(s): Zz; Polymer-unrelated pseudoatoms are not allowed

>  <Smiles>
[?]C(O[?])=O

>  <Molecular Formula>
CO2

$$$$
methyl-n-methyl anthranilate
Actelion Java MolfileCreator 2.0

  0  0  0  0  0  0              0 V3000
M  V30 BEGIN CTAB
M  V30 COUNTS 12 12 0 0 0
M  V30 BEGIN ATOM
M  V30 1 O 0.0 0.0 0.0 0
M  V30 2 C 1.1854 0.8336 0.0 0
M  V30 3 O 1.0551 2.501 0.0 0
M  V30 4 C 2.3708 0.1432 0.0 0
M  V30 5 C -0.3907 3.3477 0.0 0
M  V30 6 C 3.5562 0.99 0.0 0
M  V30 7 C 2.2405 -1.2635 0.0 0
M  V30 8 N 3.4259 2.6573 0.0 0
M  V30 9 C 4.7416 0.2996 0.0 0
M  V30 10 C 3.4259 -1.9539 0.0 0
M  V30 11 C 1.98 3.5041 0.0 0
M  V30 12 C 4.6113 -1.1072 0.0 0
M  V30 END ATOM
M  V30 BEGIN BOND
M  V30 1 2 1 2
M  V30 2 1 2 3
M  V30 3 1 2 4
M  V30 4 1 3 5
M  V30 5 2 4 6
M  V30 6 1 4 7
M  V30 7 1 6 8
M  V30 8 1 6 9
M  V30 9 2 7 10
M  V30 10 1 8 11
M  V30 11 2 9 12
M  V30 12 1 10 12
M  V30 END BOND
M  V30 END CTAB
M  END
>  <Molecule Name>
methyl-n-methyl anthranilate

>  <Molecule Name 2>
methyl-n-methyl anthranilate

>  <Database>
Essential Oil Database

>  <InChI>
InChI=1S/C9H11NO2/c1-10-8-6-4-3-5-7(8)9(11)12-2/h3-6,10H,1-2H3

>  <InChI-Key>
GVOWHGSUZUUUDR-UHFFFAOYSA-N

>  <Smiles>
CNc(cccc1)c1C(OC)=O

>  <Molecular Formula>
C9H11NO2

$$$$
alpha-sinensal
Actelion Java MolfileCreator 2.0

  0  0  0  0  0  0              0 V3000
M  V30 BEGIN CTAB
M  V30 COUNTS 16 15 0 0 0
M  V30 BEGIN ATOM
M  V30 1 O 0.0 0.0 0.0 0
M  V30 2 C -0.774 1.3425 0.0 0
M  V30 3 C -2.3221 1.4634 0.0 0
M  V30 4 C -3.1083 2.8059 0.0 0
M  V30 5 C -3.1083 0.3628 0.0 0
M  V30 6 C -4.6564 2.9269 0.0 0
M  V30 7 C -5.4426 4.2694 0.0 0
M  V30 8 C -6.9907 4.3903 0.0 0
M  V30 9 C -7.7769 5.7329 0.0 0
M  V30 10 C -7.7769 3.2897 0.0 0
M  V30 11 C -9.325 5.8538 0.0 0
M  V30 12 C -10.1111 4.7532 0.0 0
M  V30 13 C -11.6593 4.8741 0.0 0
M  V30 14 C -12.4454 3.7735 0.0 0
M  V30 15 C -12.4454 6.2166 0.0 0
M  V30 16 C -13.9935 3.8945 0.0 0
M  V30 END ATOM
M  V30 BEGIN BOND
M  V30 1 2 1 2
M  V30 2 1 2 3
M  V30 3 2 3 4
M  V30 4 1 3 5
M  V30 5 1 4 6
M  V30 6 1 6 7
M  V30 7 1 7 8
M  V30 8 2 8 9
M  V30 9 1 8 10
M  V30 10 1 9 11
M  V30 11 1 11 12
M  V30 12 2 12 13
M  V30 13 1 13 14
M  V30 14 1 13 15
M  V30 15 2 14 16
M  V30 END BOND
M  V30 END CTAB
M  END
>  <Molecule Name>
alpha-sinensal

>  <Molecule Name 2>
alpha-sinensal

>  <Database>
Essential Oil Database

>  <InChI>
InChI=1S/C15H22O/c1-5-13(2)8-6-9-14(3)10-7-11-15(4)12-16/h5,8-9,11-12H,1,6-7,10H2,2-4H3/b13-8+,14-9+,15-11+

>  <InChI-Key>
PFSTYGCNVAVZBK-JQGMZEBDSA-N

>  <Smiles>
C/C(\CC/C=C(\C)/C=O)=C\C/C=C(\C)/C=C

>  <Molecular Formula>
C15H22O

$$$$
p-mentha-1(2),8-dien-10-ol
Actelion Java MolfileCreator 2.0

  0  0  0  0  0  0              0 V3000
M  V30 BEGIN CTAB
M  V30 COUNTS 11 11 0 0 0
M  V30 BEGIN ATOM
M  V30 1 O 0.0 0.0 0.0 0
M  V30 2 C -0.123 1.5755 0.0 0
M  V30 3 C 0.997 2.3755 0.0 0
M  V30 4 C 2.117 1.7109 0.0 0
M  V30 5 C 0.8739 3.951 0.0 0 CFG=2
M  V30 6 C -0.4923 4.7511 0.0 0
M  V30 7 C 1.994 4.7511 0.0 0
M  V30 8 C -0.6154 6.3266 0.0 0
M  V30 9 C 1.8709 6.3266 0.0 0
M  V30 10 C 0.5046 7.1267 0.0 0
M  V30 11 C 0.3815 8.7022 0.0 0
M  V30 END ATOM
M  V30 BEGIN BOND
M  V30 1 1 1 2
M  V30 2 1 2 3
M  V30 3 2 3 4
M  V30 4 1 5 3 CFG=3
M  V30 5 1 5 6
M  V30 6 1 5 7
M  V30 7 1 6 8
M  V30 8 1 7 9
M  V30 9 2 8 10
M  V30 10 1 10 11
M  V30 11 1 9 10
M  V30 END BOND
M  V30 BEGIN COLLECTION
M  V30 MDLV30/STERAC1 ATOMS=(1 5)
M  V30 END COLLECTION
M  V30 END CTAB
M  END
>  <Molecule Name>
p-mentha-1(2),8-dien-10-ol

>  <Molecule Name 2>
p-mentha-1(2),8-dien-10-ol

>  <Database>
Essential Oil Database

>  <InChI>
InChI=1S/C10H16O/c1-8-3-5-10(6-4-8)9(2)7-11/h3,10-11H,2,4-7H2,1H3/t10-/m1/s1

>  <InChI-Key>
UIMAEYMKYMNCGW-SNVBAGLBSA-N

>  <Smiles>
CC(CC1)=CCC1C(CO)=C

>  <Molecular Formula>
C10H16O

$$$$
p-mentha-1(2),8-dien-10-yl acetate
Actelion Java MolfileCreator 2.0

  0  0  0  0  0  0              0 V3000
M  V30 BEGIN CTAB
M  V30 COUNTS 14 14 0 0 0
M  V30 BEGIN ATOM
M  V30 1 O 0.0 0.0 0.0 0
M  V30 2 C 1.2031 0.8593 0.0 0
M  V30 3 O 2.4062 0.1454 0.0 0
M  V30 4 C 1.0709 2.5516 0.0 0
M  V30 5 C 3.6093 1.0048 0.0 0
M  V30 6 C 4.8124 0.2908 0.0 0
M  V30 7 C 4.6802 -1.137 0.0 0
M  V30 8 C 6.0156 1.1502 0.0 0 CFG=2
M  V30 9 C 5.8834 2.8425 0.0 0
M  V30 10 C 7.2187 0.4362 0.0 0
M  V30 11 C 7.0865 3.7019 0.0 0
M  V30 12 C 8.4218 1.2956 0.0 0
M  V30 13 C 8.2896 3.0011 0.0 0
M  V30 14 C 9.4927 3.8605 0.0 0
M  V30 END ATOM
M  V30 BEGIN BOND
M  V30 1 2 1 2
M  V30 2 1 2 3
M  V30 3 1 2 4
M  V30 4 1 3 5
M  V30 5 1 5 6
M  V30 6 2 6 7
M  V30 7 1 8 6 CFG=3
M  V30 8 1 8 9
M  V30 9 1 8 10
M  V30 10 1 9 11
M  V30 11 1 10 12
M  V30 12 2 11 13
M  V30 13 1 13 14
M  V30 14 1 12 13
M  V30 END BOND
M  V30 BEGIN COLLECTION
M  V30 MDLV30/STERAC1 ATOMS=(1 8)
M  V30 END COLLECTION
M  V30 END CTAB
M  END
>  <Molecule Name>
p-mentha-1(2),8-dien-10-yl acetate

>  <Molecule Name 2>
p-mentha-1(2),8-dien-10-yl acetate

>  <Database>
Essential Oil Database

>  <InChI>
InChI=1S/C12H18O2/c1-9-4-6-12(7-5-9)10(2)8-14-11(3)13/h4,12H,2,5-8H2,1,3H3/t12-/m1/s1

>  <InChI-Key>
BCTDJPZNMXPMIA-GFCCVEGCSA-N

>  <Smiles>
CC(OCC(C1CC=C(C)CC1)=C)=O

>  <Molecular Formula>
C12H18O2

$$$$
curzerenone
Actelion Java MolfileCreator 2.0

  0  0  0  0  0  0              0 V3000
M  V30 BEGIN CTAB
M  V30 COUNTS 17 18 0 0 0
M  V30 BEGIN ATOM
M  V30 1 O 0.0 0.0 0.0 0
M  V30 2 C -0.1245 1.5948 0.0 0
M  V30 3 C -1.5075 2.4046 0.0 0
M  V30 4 C 1.0092 2.4046 0.0 0 CFG=2
M  V30 5 C -1.6321 3.9994 0.0 0
M  V30 6 C -3.0276 2.0433 0.0 0
M  V30 7 C 2.143 1.7443 0.0 0
M  V30 8 C 0.8846 3.9994 0.0 0 CFG=2
M  V30 9 O -3.1522 4.6099 0.0 0
M  V30 10 C -0.4983 4.8093 0.0 0
M  V30 11 C -3.9745 3.3391 0.0 0
M  V30 12 C -3.6381 0.7724 0.0 0
M  V30 13 C 2.0184 0.3987 0.0 0
M  V30 14 C 3.2768 2.5541 0.0 0
M  V30 15 C 2.2302 4.1738 0.0 0
M  V30 16 C 1.5823 5.3575 0.0 0
M  V30 17 C 2.8531 5.5818 0.0 0
M  V30 END ATOM
M  V30 BEGIN BOND
M  V30 1 2 1 2
M  V30 2 1 2 3
M  V30 3 1 2 4
M  V30 4 2 3 5
M  V30 5 1 3 6
M  V30 6 1 4 7 CFG=1
M  V30 7 1 4 8
M  V30 8 1 5 9
M  V30 9 1 5 10
M  V30 10 2 6 11
M  V30 11 1 6 12
M  V30 12 2 7 13
M  V30 13 1 7 14
M  V30 14 1 8 15
M  V30 15 1 8 16 CFG=1
M  V30 16 2 15 17
M  V30 17 1 8 10
M  V30 18 1 9 11
M  V30 END BOND
M  V30 BEGIN COLLECTION
M  V30 MDLV30/STERAC1 ATOMS=(2 4 8)
M  V30 END COLLECTION
M  V30 END CTAB
M  END
>  <Molecule Name>
curzerenone

>  <Molecule Name 2>
curzerenone

>  <Database>
Essential Oil Database

>  <InChI>
InChI=1S/C15H18O2/c1-6-15(5)7-11-12(10(4)8-17-11)14(16)13(15)9(2)3/h6,8,13H,1-2,7H2,3-5H3/t13-,15-/m0/s1

>  <InChI-Key>
ZVMJXSJCBLRAPD-ZFWWWQNUSA-N

>  <Smiles>
C[C@](Cc1c2c(C)c[o]1)([C@@H](C(C)=C)C2=O)C=C

>  <Molecular Formula>
C15H18O2

$$$$
limonene diepoxide
Actelion Java MolfileCreator 2.0

  0  0  0  0  0  0              0 V3000
M  V30 BEGIN CTAB
M  V30 COUNTS 12 14 0 0 0
M  V30 BEGIN ATOM
M  V30 1 O 0.0 0.0 0.0 0
M  V30 2 C 1.2194 -0.6968 0.0 0
M  V30 3 C 1.2194 0.8585 0.0 0
M  V30 4 C 2.4388 -1.3936 0.0 0
M  V30 5 C 0.3608 -1.9162 0.0 0
M  V30 6 C 2.4388 1.7171 0.0 0
M  V30 7 C 3.6583 -0.535 0.0 0
M  V30 8 C 3.6583 1.0203 0.0 0
M  V30 9 C 4.8777 1.8789 0.0 0
M  V30 10 O 5.7238 3.1854 0.0 0
M  V30 11 C 4.1809 3.4716 0.0 0
M  V30 12 C 5.7238 0.8212 0.0 0
M  V30 END ATOM
M  V30 BEGIN BOND
M  V30 1 1 1 2
M  V30 2 1 1 3
M  V30 3 1 2 4
M  V30 4 1 2 5
M  V30 5 1 3 6
M  V30 6 1 4 7
M  V30 7 1 6 8
M  V30 8 1 8 9
M  V30 9 1 9 10
M  V30 10 1 9 11
M  V30 11 1 9 12
M  V30 12 1 2 3
M  V30 13 1 7 8
M  V30 14 1 10 11
M  V30 END BOND
M  V30 END CTAB
M  END
>  <Molecule Name>
limonene diepoxide

>  <Molecule Name 2>
limonene diepoxide

>  <Database>
Essential Oil Database

>  <InChI>
InChI=1S/C10H16O2/c1-9-4-3-7(5-8(9)12-9)10(2)6-11-10/h7-8H,3-6H2,1-2H3

>  <InChI-Key>
RBHIUNHSNSQJNG-UHFFFAOYSA-N

>  <Smiles>
CC1(C2CC3OC3(C)CC2)OC1

>  <Molecular Formula>
C10H16O2

$$$$
isopiperitenone
Actelion Java MolfileCreator 2.0

  0  0  0  0  0  0              0 V3000
M  V30 BEGIN CTAB
M  V30 COUNTS 11 11 0 0 0
M  V30 BEGIN ATOM
M  V30 1 O 0.0 0.0 0.0 0
M  V30 2 C 1.2169 -0.7087 0.0 0
M  V30 3 C 1.0832 -2.153 0.0 0
M  V30 4 C 2.4338 0.1604 0.0 0 CFG=2
M  V30 5 C 2.3001 -2.8618 0.0 0
M  V30 6 C 2.3001 1.8722 0.0 0
M  V30 7 C 3.6508 -0.5482 0.0 0
M  V30 8 C 3.5171 -1.9925 0.0 0
M  V30 9 C 2.1664 -4.3061 0.0 0
M  V30 10 C 3.5171 2.7414 0.0 0
M  V30 11 C 0.8157 2.7414 0.0 0
M  V30 END ATOM
M  V30 BEGIN BOND
M  V30 1 2 1 2
M  V30 2 1 2 3
M  V30 3 1 2 4
M  V30 4 2 3 5
M  V30 5 1 4 6 CFG=3
M  V30 6 1 4 7
M  V30 7 1 5 8
M  V30 8 1 5 9
M  V30 9 2 6 10
M  V30 10 1 6 11
M  V30 11 1 7 8
M  V30 END BOND
M  V30 BEGIN COLLECTION
M  V30 MDLV30/STERAC1 ATOMS=(1 4)
M  V30 END COLLECTION
M  V30 END CTAB
M  END
>  <Molecule Name>
isopiperitenone

>  <Molecule Name 2>
isopiperitenone

>  <Database>
Essential Oil Database

>  <InChI>
InChI=1S/C10H14O/c1-7(2)9-5-4-8(3)6-10(9)11/h6,9H,1,4-5H2,2-3H3/t9-/m0/s1

>  <InChI-Key>
SEZLYIWMVRUIKT-VIFPVBQESA-N

>  <Smiles>
CC(C(CCC(C)=C1)C1=O)=C

>  <Molecular Formula>
C10H14O

$$$$
2-octenol
Actelion Java MolfileCreator 2.0

  0  0  0  0  0  0              0 V3000
M  V30 BEGIN CTAB
M  V30 COUNTS 9 8 0 0 0
M  V30 BEGIN ATOM
M  V30 1 O 0.0 0.0 0.0 0
M  V30 2 C -0.1345 1.7226 0.0 0
M  V30 3 C 1.0901 2.5974 0.0 0
M  V30 4 C 2.3148 1.8841 0.0 0
M  V30 5 C 3.5395 2.7589 0.0 0
M  V30 6 C 4.7642 2.0456 0.0 0
M  V30 7 C 5.9889 2.9204 0.0 0
M  V30 8 C 7.2136 2.2071 0.0 0
M  V30 9 C 8.4384 3.0819 0.0 0
M  V30 END ATOM
M  V30 BEGIN BOND
M  V30 1 1 1 2
M  V30 2 1 2 3
M  V30 3 2 3 4
M  V30 4 1 4 5
M  V30 5 1 5 6
M  V30 6 1 6 7
M  V30 7 1 7 8
M  V30 8 1 8 9
M  V30 END BOND
M  V30 END CTAB
M  END
>  <Molecule Name>
2-octenol

>  <Molecule Name 2>
2-octenol

>  <Database>
Essential Oil Database

>  <InChI>
InChI=1S/C8H16O/c1-2-3-4-5-6-7-8-9/h6-7,9H,2-5,8H2,1H3/b7-6+

>  <InChI-Key>
AYQPVPFZWIQERS-VOTSOKGWSA-N

>  <Smiles>
CCCCC/C=C/CO

>  <Molecular Formula>
C8H16O

$$$$
4-isopropyl-2-cyclohexanone
Actelion Java MolfileCreator 2.0

  0  0  0  0  0  0              0 V3000
M  V30 BEGIN CTAB
M  V30 COUNTS 10 10 0 0 0
M  V30 BEGIN ATOM
M  V30 1 O 0.0 0.0 0.0 0
M  V30 2 C 1.1655 0.8196 0.0 0
M  V30 3 C 1.0374 2.459 0.0 0
M  V30 4 C 2.331 0.1408 0.0 0
M  V30 5 C 2.2029 3.2916 0.0 0 CFG=1
M  V30 6 C 3.4965 0.9733 0.0 0
M  V30 7 C 2.0748 4.9309 0.0 0
M  V30 8 C 3.3684 2.6127 0.0 0
M  V30 9 C 0.6531 5.7635 0.0 0
M  V30 10 C 3.2403 5.7635 0.0 0
M  V30 END ATOM
M  V30 BEGIN BOND
M  V30 1 2 1 2
M  V30 2 1 2 3
M  V30 3 1 2 4
M  V30 4 1 3 5
M  V30 5 1 4 6
M  V30 6 1 5 7 CFG=1
M  V30 7 1 5 8
M  V30 8 1 7 9
M  V30 9 1 7 10
M  V30 10 1 6 8
M  V30 END BOND
M  V30 BEGIN COLLECTION
M  V30 MDLV30/STERAC1 ATOMS=(1 5)
M  V30 END COLLECTION
M  V30 END CTAB
M  END
>  <Molecule Name>
4-isopropyl-2-cyclohexanone

>  <Molecule Name 2>
4-isopropyl-2-cyclohexanone

>  <Database>
Essential Oil Database

>  <InChI>
InChI=1S/C9H16O/c1-7(2)8-4-3-5-9(10)6-8/h7-8H,3-6H2,1-2H3/t8-/m0/s1

>  <InChI-Key>
AFFBXUKVORMWSC-QMMMGPOBSA-N

>  <Smiles>
CC(C)C(CCC1)CC1=O

>  <Molecular Formula>
C9H16O

$$$$
8-acetoxylinalool
Actelion Java MolfileCreator 2.0

  0  0  0  0  0  0              0 V3000
M  V30 BEGIN CTAB
M  V30 COUNTS 15 14 0 0 0
M  V30 BEGIN ATOM
M  V30 1 O 0.0 0.0 0.0 0
M  V30 2 C 0.6951 -1.1936 0.0 0
M  V30 3 O -0.1442 -2.3872 0.0 0
M  V30 4 C 2.1118 -1.0624 0.0 0
M  V30 5 C 0.5377 -3.5808 0.0 0
M  V30 6 C -0.3016 -4.7745 0.0 0
M  V30 7 C -1.9806 -4.6433 0.0 0
M  V30 8 C 0.3803 -5.9681 0.0 0
M  V30 9 C -2.8332 -5.8369 0.0 0
M  V30 10 C -4.5121 -5.7058 0.0 0
M  V30 11 C -5.3647 -6.8994 0.0 0 CFG=2
M  V30 12 O -6.8207 -6.0468 0.0 0
M  V30 13 C -6.2173 -8.093 0.0 0
M  V30 14 C -4.1711 -7.6077 0.0 0
M  V30 15 C -7.8963 -7.9618 0.0 0
M  V30 END ATOM
M  V30 BEGIN BOND
M  V30 1 2 1 2
M  V30 2 1 2 3
M  V30 3 1 2 4
M  V30 4 1 3 5
M  V30 5 1 5 6
M  V30 6 2 6 7
M  V30 7 1 6 8
M  V30 8 1 7 9
M  V30 9 1 9 10
M  V30 10 1 10 11
M  V30 11 1 11 12
M  V30 12 1 11 13 CFG=1
M  V30 13 1 11 14
M  V30 14 2 13 15
M  V30 END BOND
M  V30 BEGIN COLLECTION
M  V30 MDLV30/STERAC1 ATOMS=(1 11)
M  V30 END COLLECTION
M  V30 END CTAB
M  END
>  <Molecule Name>
8-acetoxylinalool

>  <Molecule Name 2>
8-acetoxylinalool

>  <Database>
Essential Oil Database

>  <InChI>
InChI=1S/C12H20O3/c1-5-12(4,14)8-6-7-10(2)9-15-11(3)13/h5,7,14H,1,6,8-9H2,2-4H3/b10-7+/t12-/m1/s1

>  <InChI-Key>
BOJXRPGLMTUOEQ-OFFHKIPUSA-N

>  <Smiles>
CC(CC/C=C(\C)/COC(C)=O)(C=C)O

>  <Molecular Formula>
C12H20O3

$$$$
beta-terpineol
Actelion Java MolfileCreator 2.0

  0  0  0  0  0  0              0 V3000
M  V30 BEGIN CTAB
M  V30 COUNTS 26 27 0 0 0
M  V30 BEGIN ATOM
M  V30 1 O 0.0 0.0 0.0 0
M  V30 2 C -0.1289 1.6509 0.0 0 CFG=2
M  V30 3 C -1.4316 -0.6964 0.0 0 CFG=2
M  V30 4 O 1.0447 2.4893 0.0 0
M  V30 5 C -1.5606 2.4893 0.0 0 CFG=1
M  V30 6 C -2.8633 0.1418 0.0 0 CFG=1
M  V30 7 C -1.5606 -2.0894 0.0 0
M  V30 8 C 2.2184 1.7928 0.0 0
M  V30 9 O -1.6896 4.1402 0.0 0
M  V30 10 C -2.9923 1.7928 0.0 0 CFG=1
M  V30 11 O -4.295 -0.5417 0.0 0
M  V30 12 O -0.3869 -2.773 0.0 0
M  V30 13 C 3.3921 2.6311 0.0 0
M  V30 14 C 2.0894 0.3998 0.0 0
M  V30 15 O -4.424 2.6311 0.0 0
M  V30 16 O 3.2631 4.2821 0.0 0
M  V30 17 C 4.5658 1.9346 0.0 0
M  V30 18 O 0.6577 -0.2837 0.0 0
M  V30 19 C 3.2631 -0.2837 0.0 0
M  V30 20 C 1.8315 5.1204 0.0 0
M  V30 21 C 4.4369 0.5417 0.0 0
M  V30 22 C 0.5288 -1.6767 0.0 0
M  V30 23 C 5.6106 -0.1547 0.0 0
M  V30 24 C 5.4816 -1.5477 0.0 0
M  V30 25 C 6.6553 -2.2313 0.0 0
M  V30 26 O 6.5263 -3.6243 0.0 0
M  V30 END ATOM
M  V30 BEGIN BOND
M  V30 1 1 1 2
M  V30 2 1 1 3
M  V30 3 1 2 4 CFG=1
M  V30 4 1 2 5
M  V30 5 1 3 6
M  V30 6 1 3 7 CFG=1
M  V30 7 1 4 8
M  V30 8 1 5 9 CFG=3
M  V30 9 1 5 10
M  V30 10 1 6 11 CFG=3
M  V30 11 1 7 12
M  V30 12 2 8 13
M  V30 13 1 8 14
M  V30 14 1 10 15 CFG=1
M  V30 15 1 13 16
M  V30 16 1 13 17
M  V30 17 1 14 18
M  V30 18 2 14 19
M  V30 19 1 16 20
M  V30 20 2 17 21
M  V30 21 1 18 22
M  V30 22 1 21 23
M  V30 23 2 23 24
M  V30 24 1 24 25
M  V30 25 1 25 26
M  V30 26 1 6 10
M  V30 27 1 19 21
M  V30 END BOND
M  V30 BEGIN COLLECTION
M  V30 MDLV30/STERAC1 ATOMS=(5 2 3 5 6 10)
M  V30 END COLLECTION
M  V30 END CTAB
M  END
>  <Molecule Name>
beta-terpineol

>  <Molecule Name 2>
beta-terpineol

>  <Database>
Essential Oil Database

>  <InChI>
InChI=1S/C17H24O9/c1-23-10-6-9(4-3-5-18)7-11(24-2)16(10)26-17-15(22)14(21)13(20)12(8-19)25-17/h3-4,6-7,12-15,17-22H,5,8H2,1-2H3/b4-3+/t12-,13-,14+,15-,17+/m0/s1

>  <InChI-Key>
QJVXKWHHAMZTBY-VKAIBYOUSA-N

>  <Smiles>
COc1cc(/C=C/CO)cc(OC)c1O[C@H]([C@H]([C@@H]1O)O)O[C@@H](CO)[C@@H]1O

>  <Molecular Formula>
C17H24O9

$$$$
gamma-hexalactone
Actelion Java MolfileCreator 2.0

  0  0  0  0  0  0              0 V3000
M  V30 BEGIN CTAB
M  V30 COUNTS 8 8 0 0 0
M  V30 BEGIN ATOM
M  V30 1 O 0.0 0.0 0.0 0
M  V30 2 C 0.7375 1.3001 0.0 0
M  V30 3 O 0.125 2.8253 0.0 0
M  V30 4 C 2.0877 1.4251 0.0 0
M  V30 5 C 1.1751 3.7754 0.0 0 CFG=2
M  V30 6 C 2.4502 2.9503 0.0 0
M  V30 7 C 1.0501 5.3755 0.0 0
M  V30 8 C 2.1877 6.1881 0.0 0
M  V30 END ATOM
M  V30 BEGIN BOND
M  V30 1 2 1 2
M  V30 2 1 2 3
M  V30 3 1 2 4
M  V30 4 1 3 5
M  V30 5 1 4 6
M  V30 6 1 5 7 CFG=1
M  V30 7 1 7 8
M  V30 8 1 5 6
M  V30 END BOND
M  V30 BEGIN COLLECTION
M  V30 MDLV30/STERAC1 ATOMS=(1 5)
M  V30 END COLLECTION
M  V30 END CTAB
M  END
>  <Molecule Name>
gamma-hexalactone

>  <Molecule Name 2>
gamma-hexalactone

>  <Database>
Essential Oil Database

>  <InChI>
InChI=1S/C6H10O2/c1-2-5-3-4-6(7)8-5/h5H,2-4H2,1H3/t5-/m0/s1

>  <InChI-Key>
JBFHTYHTHYHCDJ-YFKPBYRVSA-N

>  <Smiles>
CCC(CC1)OC1=O

>  <Molecular Formula>
C6H10O2

$$$$
p-mentha-1(7),8(10)-dien-9-ol
Actelion Java MolfileCreator 2.0

  0  0  0  0  0  0              0 V3000
M  V30 BEGIN CTAB
M  V30 COUNTS 11 11 0 0 0
M  V30 BEGIN ATOM
M  V30 1 O 0.0 0.0 0.0 0
M  V30 2 C -0.123 1.5755 0.0 0
M  V30 3 C 0.997 2.3755 0.0 0
M  V30 4 C 2.117 1.7109 0.0 0
M  V30 5 C 0.8739 3.951 0.0 0
M  V30 6 C 1.994 4.7511 0.0 0
M  V30 7 C -0.4923 4.7511 0.0 0
M  V30 8 C 1.8709 6.3266 0.0 0
M  V30 9 C -0.6154 6.3266 0.0 0
M  V30 10 C 0.5046 7.1267 0.0 0
M  V30 11 C 0.3815 8.7022 0.0 0
M  V30 END ATOM
M  V30 BEGIN BOND
M  V30 1 1 1 2
M  V30 2 1 2 3
M  V30 3 2 3 4
M  V30 4 1 3 5
M  V30 5 1 5 6
M  V30 6 1 5 7
M  V30 7 1 6 8
M  V30 8 1 7 9
M  V30 9 1 8 10
M  V30 10 2 10 11
M  V30 11 1 9 10
M  V30 END BOND
M  V30 END CTAB
M  END
>  <Molecule Name>
p-mentha-1(7),8(10)-dien-9-ol

>  <Molecule Name 2>
p-mentha-1(7),8(10)-dien-9-ol

>  <Database>
Essential Oil Database

>  <InChI>
InChI=1S/C10H16O/c1-8-3-5-10(6-4-8)9(2)7-11/h10-11H,1-7H2

>  <InChI-Key>
SDDQNZKSVASSFO-UHFFFAOYSA-N

>  <Smiles>
C=C(CO)C(CC1)CCC1=C

>  <Molecular Formula>
C10H16O

$$$$
(z)-3-hexenyl valerate
Actelion Java MolfileCreator 2.0

  0  0  0  0  0  0              0 V3000
M  V30 BEGIN CTAB
M  V30 COUNTS 13 12 0 0 0
M  V30 BEGIN ATOM
M  V30 1 O 0.0 0.0 0.0 0
M  V30 2 C -0.1267 1.6226 0.0 0
M  V30 3 O 1.0268 2.4466 0.0 0
M  V30 4 C -1.5339 2.4466 0.0 0
M  V30 5 C 2.1804 1.7621 0.0 0
M  V30 6 C -2.9411 1.7621 0.0 0
M  V30 7 C 3.3341 2.5861 0.0 0
M  V30 8 C -4.3482 2.5861 0.0 0
M  V30 9 C 4.4877 1.9015 0.0 0
M  V30 10 C -5.7554 1.9015 0.0 0
M  V30 11 C 5.6413 2.7255 0.0 0
M  V30 12 C 5.5145 4.3482 0.0 0
M  V30 13 C 6.6682 5.1722 0.0 0
M  V30 END ATOM
M  V30 BEGIN BOND
M  V30 1 2 1 2
M  V30 2 1 2 3
M  V30 3 1 2 4
M  V30 4 1 3 5
M  V30 5 1 4 6
M  V30 6 1 5 7
M  V30 7 1 6 8
M  V30 8 1 7 9
M  V30 9 1 8 10
M  V30 10 2 9 11
M  V30 11 1 11 12
M  V30 12 1 12 13
M  V30 END BOND
M  V30 END CTAB
M  END
>  <Molecule Name>
(z)-3-hexenyl valerate

>  <Molecule Name 2>
(z)-3-hexenyl valerate

>  <Database>
Essential Oil Database

>  <InChI>
InChI=1S/C11H20O2/c1-3-5-7-8-10-13-11(12)9-6-4-2/h5,7H,3-4,6,8-10H2,1-2H3/b7-5-

>  <InChI-Key>
XPFTVTFOOTVHIA-ALCCZGGFSA-N

>  <Smiles>
CCCCC(OCC/C=C\CC)=O

>  <Molecular Formula>
C11H20O2

$$$$
1-hepten-3-ol
Actelion Java MolfileCreator 2.0

  0  0  0  0  0  0              0 V3000
M  V30 BEGIN CTAB
M  V30 COUNTS 8 7 0 0 0
M  V30 BEGIN ATOM
M  V30 1 O 0.0 0.0 0.0 0
M  V30 2 C -0.1128 -1.4106 0.0 0 CFG=2
M  V30 3 C -1.5573 -2.02 0.0 0
M  V30 4 C 1.1059 -2.02 0.0 0
M  V30 5 C -3.0019 -1.0946 0.0 0
M  V30 6 C 2.3247 -1.0946 0.0 0
M  V30 7 C 3.5436 -1.7379 0.0 0
M  V30 8 C 4.7624 -0.8125 0.0 0
M  V30 END ATOM
M  V30 BEGIN BOND
M  V30 1 1 2 1 CFG=1
M  V30 2 1 2 3
M  V30 3 1 2 4
M  V30 4 2 3 5
M  V30 5 1 4 6
M  V30 6 1 6 7
M  V30 7 1 7 8
M  V30 END BOND
M  V30 BEGIN COLLECTION
M  V30 MDLV30/STERAC1 ATOMS=(1 2)
M  V30 END COLLECTION
M  V30 END CTAB
M  END
>  <Molecule Name>
1-hepten-3-ol

>  <Molecule Name 2>
1-hepten-3-ol

>  <Database>
Essential Oil Database

>  <InChI>
InChI=1S/C7H14O/c1-3-5-6-7(8)4-2/h4,7-8H,2-3,5-6H2,1H3/t7-/m1/s1

>  <InChI-Key>
PZKFYTOLVRCMOA-SSDOTTSWSA-N

>  <Smiles>
CCCCC(C=C)O

>  <Molecular Formula>
C7H14O

$$$$
1-hexen-3-ol
Actelion Java MolfileCreator 2.0

  0  0  0  0  0  0              0 V3000
M  V30 BEGIN CTAB
M  V30 COUNTS 7 6 0 0 0
M  V30 BEGIN ATOM
M  V30 1 O 0.0 0.0 0.0 0
M  V30 2 C -0.1267 1.6223 0.0 0 CFG=2
M  V30 3 C -1.5336 2.4588 0.0 0
M  V30 4 C 1.0266 2.4588 0.0 0
M  V30 5 C -2.9404 1.7871 0.0 0
M  V30 6 C 2.18 1.7871 0.0 0
M  V30 7 C 3.3333 2.6109 0.0 0
M  V30 END ATOM
M  V30 BEGIN BOND
M  V30 1 1 2 1 CFG=3
M  V30 2 1 2 3
M  V30 3 1 2 4
M  V30 4 2 3 5
M  V30 5 1 4 6
M  V30 6 1 6 7
M  V30 END BOND
M  V30 BEGIN COLLECTION
M  V30 MDLV30/STERAC1 ATOMS=(1 2)
M  V30 END COLLECTION
M  V30 END CTAB
M  END
>  <Molecule Name>
1-hexen-3-ol

>  <Molecule Name 2>
1-hexen-3-ol

>  <Database>
Essential Oil Database

>  <InChI>
InChI=1S/C6H12O/c1-3-5-6(7)4-2/h4,6-7H,2-3,5H2,1H3/t6-/m1/s1

>  <InChI-Key>
BVOSSZSHBZQJOI-ZCFIWIBFSA-N

>  <Smiles>
CCCC(C=C)O

>  <Molecular Formula>
C6H12O

$$$$
1-methyl-4-heptenol
Actelion Java MolfileCreator 2.0

  0  0  0  0  0  0              0 V3000
M  V30 BEGIN CTAB
M  V30 COUNTS 9 8 0 0 0
M  V30 BEGIN ATOM
M  V30 1 O 0.0 0.0 0.0 0
M  V30 2 C 0.6987 -1.1997 0.0 0 CFG=2
M  V30 3 C -0.145 -2.3994 0.0 0
M  V30 4 C 2.1226 -1.0679 0.0 0
M  V30 5 C 0.5537 -3.5992 0.0 0
M  V30 6 C -0.29 -4.7989 0.0 0
M  V30 7 C -1.9775 -4.6671 0.0 0
M  V30 8 C -2.8345 -5.8668 0.0 0
M  V30 9 C -4.5221 -5.735 0.0 0
M  V30 END ATOM
M  V30 BEGIN BOND
M  V30 1 1 2 1 CFG=1
M  V30 2 1 2 3
M  V30 3 1 2 4
M  V30 4 1 3 5
M  V30 5 1 5 6
M  V30 6 2 6 7
M  V30 7 1 7 8
M  V30 8 1 8 9
M  V30 END BOND
M  V30 BEGIN COLLECTION
M  V30 MDLV30/STERAC1 ATOMS=(1 2)
M  V30 END COLLECTION
M  V30 END CTAB
M  END
>  <Molecule Name>
1-methyl-4-heptenol

>  <Molecule Name 2>
1-methyl-4-heptenol

>  <Database>
Essential Oil Database

>  <InChI>
InChI=1S/C8H16O/c1-3-4-5-6-7-8(2)9/h4-5,8-9H,3,6-7H2,1-2H3/b5-4+/t8-/m0/s1

>  <InChI-Key>
LZHHQGKEJNRBAZ-ZJELKQJVSA-N

>  <Smiles>
CC/C=C/CCC(C)O

>  <Molecular Formula>
C8H16O

$$$$
3-buten-2-ol
Actelion Java MolfileCreator 2.0

  0  0  0  0  0  0              0 V3000
M  V30 BEGIN CTAB
M  V30 COUNTS 5 4 0 0 0
M  V30 BEGIN ATOM
M  V30 1 O 0.0 0.0 0.0 0
M  V30 2 C 1.3999 0.1119 0.0 0 CFG=2
M  V30 3 C 1.9935 1.5455 0.0 0
M  V30 4 C 1.9935 -1.0975 0.0 0
M  V30 5 C 1.0863 2.9791 0.0 0
M  V30 END ATOM
M  V30 BEGIN BOND
M  V30 1 1 2 1 CFG=3
M  V30 2 1 2 3
M  V30 3 1 2 4
M  V30 4 2 3 5
M  V30 END BOND
M  V30 BEGIN COLLECTION
M  V30 MDLV30/STERAC1 ATOMS=(1 2)
M  V30 END COLLECTION
M  V30 END CTAB
M  END
>  <Molecule Name>
3-buten-2-ol

>  <Molecule Name 2>
3-buten-2-ol

>  <Database>
Essential Oil Database

>  <InChI>
InChI=1S/C4H8O/c1-3-4(2)5/h3-5H,1H2,2H3/t4-/m0/s1

>  <InChI-Key>
MKUWVMRNQOOSAT-BYPYZUCNSA-N

>  <Smiles>
CC(C=C)O

>  <Molecular Formula>
C4H8O

$$$$
3-butenol
Actelion Java MolfileCreator 2.0

  0  0  0  0  0  0              0 V3000
M  V30 BEGIN CTAB
M  V30 COUNTS 5 4 0 0 0
M  V30 BEGIN ATOM
M  V30 1 O 0.0 0.0 0.0 0
M  V30 2 C 1.5266 0.1211 0.0 0
M  V30 3 C 2.1688 -1.1995 0.0 0
M  V30 4 C 3.6954 -1.0783 0.0 0
M  V30 5 C 4.3376 -2.399 0.0 0
M  V30 END ATOM
M  V30 BEGIN BOND
M  V30 1 1 1 2
M  V30 2 1 2 3
M  V30 3 1 3 4
M  V30 4 2 4 5
M  V30 END BOND
M  V30 END CTAB
M  END
>  <Molecule Name>
3-butenol

>  <Molecule Name 2>
3-butenol

>  <Database>
Essential Oil Database

>  <InChI>
InChI=1S/C4H8O/c1-2-3-4-5/h2,5H,1,3-4H2

>  <InChI-Key>
ZSPTYLOMNJNZNG-UHFFFAOYSA-N

>  <Smiles>
C=CCCO

>  <Molecular Formula>
C4H8O

$$$$
3-methyl-2-pentanol
Actelion Java MolfileCreator 2.0

  0  0  0  0  0  0              0 V3000
M  V30 BEGIN CTAB
M  V30 COUNTS 7 6 0 0 0
M  V30 BEGIN ATOM
M  V30 1 O 0.0 0.0 0.0 0
M  V30 2 C -1.5383 0.1201 0.0 0
M  V30 3 C -2.3194 1.4541 0.0 0
M  V30 4 C -2.3194 -0.9734 0.0 0
M  V30 5 C -1.6825 2.7881 0.0 0
M  V30 6 C -3.8577 1.5743 0.0 0
M  V30 7 C -2.4636 4.1221 0.0 0
M  V30 END ATOM
M  V30 BEGIN BOND
M  V30 1 1 1 2
M  V30 2 1 2 3
M  V30 3 1 2 4
M  V30 4 1 3 5
M  V30 5 1 3 6
M  V30 6 1 5 7
M  V30 END BOND
M  V30 END CTAB
M  END
>  <Molecule Name>
3-methyl-2-pentanol

>  <Molecule Name 2>
3-methyl-2-pentanol

>  <Database>
Essential Oil Database

>  <InChI>
InChI=1S/C6H14O/c1-4-5(2)6(3)7/h5-7H,4H2,1-3H3

>  <InChI-Key>
ZXNBBWHRUSXUFZ-UHFFFAOYSA-N

>  <Smiles>
CCC(C)C(C)O

>  <Molecular Formula>
C6H14O

$$$$
4-heptanol
Actelion Java MolfileCreator 2.0

  0  0  0  0  0  0              0 V3000
M  V30 BEGIN CTAB
M  V30 COUNTS 8 7 0 0 0
M  V30 BEGIN ATOM
M  V30 1 O 0.0 0.0 0.0 0
M  V30 2 C -0.125 1.6006 0.0 0
M  V30 3 C -1.5131 2.4134 0.0 0
M  V30 4 C 1.0129 2.4134 0.0 0
M  V30 5 C -2.9011 1.7382 0.0 0
M  V30 6 C 2.1508 1.7382 0.0 0
M  V30 7 C -4.2892 2.5635 0.0 0
M  V30 8 C 3.2888 2.5635 0.0 0
M  V30 END ATOM
M  V30 BEGIN BOND
M  V30 1 1 1 2
M  V30 2 1 2 3
M  V30 3 1 2 4
M  V30 4 1 3 5
M  V30 5 1 4 6
M  V30 6 1 5 7
M  V30 7 1 6 8
M  V30 END BOND
M  V30 END CTAB
M  END
>  <Molecule Name>
4-heptanol

>  <Molecule Name 2>
4-heptanol

>  <Database>
Essential Oil Database

>  <InChI>
InChI=1S/C7H16O/c1-3-5-7(8)6-4-2/h7-8H,3-6H2,1-2H3

>  <InChI-Key>
YVBCULSIZWMTFY-UHFFFAOYSA-N

>  <Smiles>
CCCC(CCC)O

>  <Molecular Formula>
C7H16O

$$$$
9-decenylacetate
Actelion Java MolfileCreator 2.0

  0  0  0  0  0  0              0 V3000
M  V30 BEGIN CTAB
M  V30 COUNTS 14 13 0 0 0
M  V30 BEGIN ATOM
M  V30 1 O 0.0 0.0 0.0 0
M  V30 2 C -0.1339 1.7147 0.0 0
M  V30 3 O -1.6209 2.5988 0.0 0 CHG=-1
M  V30 4 C 1.085 2.5988 0.0 0
M  V30 5 C 2.3041 1.8888 0.0 0
M  V30 6 C 3.5231 2.7596 0.0 0
M  V30 7 C 4.7422 2.0496 0.0 0
M  V30 8 C 5.9612 2.9203 0.0 0
M  V30 9 C 7.1803 2.2103 0.0 0
M  V30 10 C 8.3993 3.0811 0.0 0
M  V30 11 C 9.6184 2.3711 0.0 0
M  V30 12 C 10.8374 3.2418 0.0 0
M  V30 13 C 12.0565 2.5318 0.0 0
M  V30 14 C 13.2756 3.4026 0.0 0
M  V30 END ATOM
M  V30 BEGIN BOND
M  V30 1 2 1 2
M  V30 2 1 2 3
M  V30 3 1 2 4
M  V30 4 1 4 5
M  V30 5 1 5 6
M  V30 6 1 6 7
M  V30 7 1 7 8
M  V30 8 1 8 9
M  V30 9 1 9 10
M  V30 10 1 10 11
M  V30 11 1 11 12
M  V30 12 1 12 13
M  V30 13 2 13 14
M  V30 END BOND
M  V30 END CTAB
M  END
>  <Molecule Name>
9-decenylacetate

>  <Molecule Name 2>
9-decenylacetate

>  <Database>
Essential Oil Database

>  <InChI>
InChI=1S/C12H22O2/c1-2-3-4-5-6-7-8-9-10-11-12(13)14/h2H,1,3-11H2,(H,13,14)/p-1

>  <InChI-Key>
GZZPOFFXKUVNSW-UHFFFAOYSA-M

>  <Smiles>
C=CCCCCCCCCCC([O-])=O

>  <Molecular Formula>
C12H21O2

$$$$
(e)-3-octenol
Actelion Java MolfileCreator 2.0

  0  0  0  0  0  0              0 V3000
M  V30 BEGIN CTAB
M  V30 COUNTS 9 8 0 0 0
M  V30 BEGIN ATOM
M  V30 1 O 0.0 0.0 0.0 0
M  V30 2 C -0.7997 -1.1371 0.0 0
M  V30 3 C -2.3992 -1.0121 0.0 0
M  V30 4 C -3.2114 -2.1493 0.0 0
M  V30 5 C -4.8109 -2.0243 0.0 0
M  V30 6 C -5.6232 -3.1615 0.0 0
M  V30 7 C -7.2227 -3.0365 0.0 0
M  V30 8 C -8.0349 -4.1736 0.0 0
M  V30 9 C -9.6344 -4.0487 0.0 0
M  V30 END ATOM
M  V30 BEGIN BOND
M  V30 1 1 1 2
M  V30 2 1 2 3
M  V30 3 1 3 4
M  V30 4 2 4 5
M  V30 5 1 5 6
M  V30 6 1 6 7
M  V30 7 1 7 8
M  V30 8 1 8 9
M  V30 END BOND
M  V30 END CTAB
M  END
>  <Molecule Name>
(e)-3-octenol

>  <Molecule Name 2>
(e)-3-octenol

>  <Database>
Essential Oil Database

>  <InChI>
InChI=1S/C8H16O/c1-2-3-4-5-6-7-8-9/h5-6,9H,2-4,7-8H2,1H3/b6-5+

>  <InChI-Key>
YDXQPTHHAPCTPP-AATRIKPKSA-N

>  <Smiles>
CCCC/C=C/CCO

>  <Molecular Formula>
C8H16O

$$$$
ethyl disulphide
Actelion Java MolfileCreator 2.0

  0  0  0  0  0  0              0 V3000
M  V30 BEGIN CTAB
M  V30 COUNTS 6 5 0 0 0
M  V30 BEGIN ATOM
M  V30 1 S 0.0 0.0 0.0 0
M  V30 2 S -1.4067 -0.6374 0.0 0
M  V30 3 C 1.1869 -0.6374 0.0 0
M  V30 4 C -2.8135 0.1758 0.0 0
M  V30 5 C 2.3739 0.1758 0.0 0
M  V30 6 C -4.2203 -0.4615 0.0 0
M  V30 END ATOM
M  V30 BEGIN BOND
M  V30 1 1 1 2
M  V30 2 1 1 3
M  V30 3 1 2 4
M  V30 4 1 3 5
M  V30 5 1 4 6
M  V30 END BOND
M  V30 END CTAB
M  END
>  <Molecule Name>
ethyl disulphide

>  <Molecule Name 2>
ethyl disulphide

>  <Database>
Essential Oil Database

>  <InChI>
InChI=1S/C4H10S2/c1-3-5-6-4-2/h3-4H2,1-2H3

>  <InChI-Key>
CETBSQOFQKLHHZ-UHFFFAOYSA-N

>  <Smiles>
CCSSCC

>  <Molecular Formula>
C4H10S2

$$$$
p-diethylbenzene
Actelion Java MolfileCreator 2.0

  0  0  0  0  0  0              0 V3000
M  V30 BEGIN CTAB
M  V30 COUNTS 10 10 0 0 0
M  V30 BEGIN ATOM
M  V30 1 C 0.0 0.0 0.0 0
M  V30 2 C 1.1917 -0.6941 0.0 0
M  V30 3 C -1.4536 -0.6941 0.0 0
M  V30 4 C -0.1309 1.6763 0.0 0
M  V30 5 C 1.0608 -2.1085 0.0 0
M  V30 6 C -1.5846 -2.1085 0.0 0
M  V30 7 C -1.5846 2.5406 0.0 0
M  V30 8 C -0.3928 -2.8026 0.0 0
M  V30 9 C -0.5238 -4.217 0.0 0
M  V30 10 C 0.6679 -4.9242 0.0 0
M  V30 END ATOM
M  V30 BEGIN BOND
M  V30 1 2 1 2
M  V30 2 1 1 3
M  V30 3 1 1 4
M  V30 4 1 2 5
M  V30 5 2 3 6
M  V30 6 1 4 7
M  V30 7 2 5 8
M  V30 8 1 8 9
M  V30 9 1 9 10
M  V30 10 1 6 8
M  V30 END BOND
M  V30 END CTAB
M  END
>  <Molecule Name>
p-diethylbenzene

>  <Molecule Name 2>
p-diethylbenzene

>  <Database>
Essential Oil Database

>  <InChI>
InChI=1S/C10H14/c1-3-9-5-7-10(4-2)8-6-9/h5-8H,3-4H2,1-2H3

>  <InChI-Key>
DSNHSQKRULAAEI-UHFFFAOYSA-N

>  <Smiles>
CCc1ccc(CC)cc1

>  <Molecular Formula>
C10H14

$$$$
thujopsene
Actelion Java MolfileCreator 2.0

  0  0  0  0  0  0              0 V3000
M  V30 BEGIN CTAB
M  V30 COUNTS 15 17 0 0 0
M  V30 BEGIN ATOM
M  V30 1 C 0.0 0.0 0.0 0
M  V30 2 C -0.1312 1.6798 0.0 0
M  V30 3 C 1.1942 -0.6955 0.0 0 CFG=2
M  V30 4 C -1.4567 -0.6955 0.0 0
M  V30 5 C 1.063 2.5329 0.0 0
M  V30 6 C 2.3885 0.1443 0.0 0 CFG=2
M  V30 7 C 2.3885 -1.3911 0.0 0
M  V30 8 C 2.2573 1.8373 0.0 0 CFG=1
M  V30 9 C 3.5828 -0.5512 0.0 0
M  V30 10 C 3.4516 2.6904 0.0 0
M  V30 11 C 2.126 3.5172 0.0 0
M  V30 12 C 4.7771 0.3018 0.0 0
M  V30 13 C 4.4096 -1.5748 0.0 0
M  V30 14 C 2.4935 -1.5748 0.0 0
M  V30 15 C 4.6458 1.9948 0.0 0
M  V30 END ATOM
M  V30 BEGIN BOND
M  V30 1 2 1 2
M  V30 2 1 1 3
M  V30 3 1 1 4
M  V30 4 1 2 5
M  V30 5 1 3 6
M  V30 6 1 3 7 CFG=3
M  V30 7 1 5 8
M  V30 8 1 6 9
M  V30 9 1 8 10
M  V30 10 1 8 11 CFG=1
M  V30 11 1 9 12
M  V30 12 1 9 13
M  V30 13 1 9 14
M  V30 14 1 10 15
M  V30 15 1 6 7 CFG=1
M  V30 16 1 6 8
M  V30 17 1 12 15
M  V30 END BOND
M  V30 BEGIN COLLECTION
M  V30 MDLV30/STERAC1 ATOMS=(3 3 6 8)
M  V30 END COLLECTION
M  V30 END CTAB
M  END
>  <Molecule Name>
thujopsene

>  <Molecule Name 2>
thujopsene

>  <Database>
Essential Oil Database

>  <InChI>
InChI=1S/C15H24/c1-11-6-9-14(4)8-5-7-13(2,3)15(14)10-12(11)15/h6,12H,5,7-10H2,1-4H3/t12-,14+,15+/m1/s1

>  <InChI-Key>
WXQGPFZDVCRBME-SNPRPXQTSA-N

>  <Smiles>
CC(C)(CCC1)[C@@]23[C@]1(C)CC=C(C)[C@H]2C3

>  <Molecular Formula>
C15H24

$$$$
9,12,15-octadecatrienol
Actelion Java MolfileCreator 2.0

  0  0  0  0  0  0              0 V3000
M  V30 BEGIN CTAB
M  V30 COUNTS 19 18 0 0 0
M  V30 BEGIN ATOM
M  V30 1 O 0.0 0.0 0.0 0
M  V30 2 C 1.259 0.9559 0.0 0
M  V30 3 C 2.5181 0.3264 0.0 0
M  V30 4 C 3.7772 1.2824 0.0 0
M  V30 5 C 5.0363 0.6412 0.0 0
M  V30 6 C 6.2954 1.5971 0.0 0
M  V30 7 C 7.5545 0.9443 0.0 0
M  V30 8 C 8.8136 1.9003 0.0 0
M  V30 9 C 10.0727 1.2707 0.0 0
M  V30 10 C 11.3318 2.2267 0.0 0
M  V30 11 C 12.5909 1.5971 0.0 0
M  V30 12 C 13.85 2.5531 0.0 0
M  V30 13 C 15.1091 1.9119 0.0 0
M  V30 14 C 14.9925 0.4546 0.0 0
M  V30 15 C 16.2516 -0.1865 0.0 0
M  V30 16 C 16.1351 -1.6438 0.0 0
M  V30 17 C 14.6428 -2.2966 0.0 0
M  V30 18 C 14.5262 -3.7539 0.0 0
M  V30 19 C 13.0339 -4.3835 0.0 0
M  V30 END ATOM
M  V30 BEGIN BOND
M  V30 1 1 1 2
M  V30 2 1 2 3
M  V30 3 1 3 4
M  V30 4 1 4 5
M  V30 5 1 5 6
M  V30 6 1 6 7
M  V30 7 1 7 8
M  V30 8 1 8 9
M  V30 9 1 9 10
M  V30 10 2 10 11
M  V30 11 1 11 12
M  V30 12 1 12 13
M  V30 13 2 13 14
M  V30 14 1 14 15
M  V30 15 1 15 16
M  V30 16 2 16 17
M  V30 17 1 17 18
M  V30 18 1 18 19
M  V30 END BOND
M  V30 END CTAB
M  END
>  <Molecule Name>
9,12,15-octadecatrienol

>  <Molecule Name 2>
9,12,15-octadecatrienol

>  <Database>
Essential Oil Database

>  <InChI>
InChI=1S/C18H32O/c1-2-3-4-5-6-7-8-9-10-11-12-13-14-15-16-17-18-19/h3-4,6-7,9-10,19H,2,5,8,11-18H2,1H3/b4-3+,7-6+,10-9+

>  <InChI-Key>
IKYKEVDKGZYRMQ-IUQGRGSQSA-N

>  <Smiles>
CC/C=C/C/C=C/C/C=C/CCCCCCCCO

>  <Molecular Formula>
C18H32O

$$$$
9,12-octadecadienol
Actelion Java MolfileCreator 2.0

  0  0  0  0  0  0              0 V3000
M  V30 BEGIN CTAB
M  V30 COUNTS 19 18 0 0 0
M  V30 BEGIN ATOM
M  V30 1 O 0.0 0.0 0.0 0
M  V30 2 C 1.2797 0.9745 0.0 0
M  V30 3 C 2.5595 0.3404 0.0 0
M  V30 4 C 3.8393 1.315 0.0 0
M  V30 5 C 5.1191 0.6692 0.0 0
M  V30 6 C 6.3989 1.6437 0.0 0
M  V30 7 C 7.6787 0.998 0.0 0
M  V30 8 C 8.9585 1.9725 0.0 0
M  V30 9 C 10.2383 1.3267 0.0 0
M  V30 10 C 11.5181 2.3012 0.0 0
M  V30 11 C 12.7979 1.6672 0.0 0
M  V30 12 C 14.0777 2.6417 0.0 0
M  V30 13 C 15.3575 2.0077 0.0 0
M  V30 14 C 15.2401 0.5283 0.0 0
M  V30 15 C 16.5199 -0.1174 0.0 0
M  V30 16 C 16.4025 -1.5968 0.0 0
M  V30 17 C 17.6823 -2.2543 0.0 0
M  V30 18 C 17.5648 -3.7337 0.0 0
M  V30 19 C 18.8446 -4.3912 0.0 0
M  V30 END ATOM
M  V30 BEGIN BOND
M  V30 1 1 1 2
M  V30 2 1 2 3
M  V30 3 1 3 4
M  V30 4 1 4 5
M  V30 5 1 5 6
M  V30 6 1 6 7
M  V30 7 1 7 8
M  V30 8 1 8 9
M  V30 9 1 9 10
M  V30 10 2 10 11
M  V30 11 1 11 12
M  V30 12 1 12 13
M  V30 13 2 13 14
M  V30 14 1 14 15
M  V30 15 1 15 16
M  V30 16 1 16 17
M  V30 17 1 17 18
M  V30 18 1 18 19
M  V30 END BOND
M  V30 END CTAB
M  END
>  <Molecule Name>
9,12-octadecadienol

>  <Molecule Name 2>
9,12-octadecadienol

>  <Database>
Essential Oil Database

>  <InChI>
InChI=1S/C18H34O/c1-2-3-4-5-6-7-8-9-10-11-12-13-14-15-16-17-18-19/h6-7,9-10,19H,2-5,8,11-18H2,1H3/b7-6+,10-9+

>  <InChI-Key>
JXNPEDYJTDQORS-AVQMFFATSA-N

>  <Smiles>
CCCCC/C=C/C/C=C/CCCCCCCCO

>  <Molecular Formula>
C18H34O

$$$$
9-octadecenal
Actelion Java MolfileCreator 2.0

  0  0  0  0  0  0              0 V3000
M  V30 BEGIN CTAB
M  V30 COUNTS 19 18 0 0 0
M  V30 BEGIN ATOM
M  V30 1 O 0.0 0.0 0.0 0
M  V30 2 C 1.2552 0.9165 0.0 0
M  V30 3 C 2.5105 0.1992 0.0 0
M  V30 4 C 3.7657 1.1157 0.0 0
M  V30 5 C 5.021 0.3984 0.0 0
M  V30 6 C 6.2762 1.315 0.0 0
M  V30 7 C 7.5315 0.5977 0.0 0
M  V30 8 C 8.7868 1.5142 0.0 0
M  V30 9 C 10.042 0.7969 0.0 0
M  V30 10 C 11.2973 1.7135 0.0 0
M  V30 11 C 12.5525 0.9962 0.0 0
M  V30 12 C 13.8078 1.9127 0.0 0
M  V30 13 C 15.063 1.1954 0.0 0
M  V30 14 C 16.3183 2.112 0.0 0
M  V30 15 C 17.5736 1.3947 0.0 0
M  V30 16 C 18.8288 2.3112 0.0 0
M  V30 17 C 20.0841 1.5939 0.0 0
M  V30 18 C 21.3393 2.5105 0.0 0
M  V30 19 C 22.5946 1.7932 0.0 0
M  V30 END ATOM
M  V30 BEGIN BOND
M  V30 1 2 1 2
M  V30 2 1 2 3
M  V30 3 1 3 4
M  V30 4 1 4 5
M  V30 5 1 5 6
M  V30 6 1 6 7
M  V30 7 1 7 8
M  V30 8 1 8 9
M  V30 9 1 9 10
M  V30 10 2 10 11
M  V30 11 1 11 12
M  V30 12 1 12 13
M  V30 13 1 13 14
M  V30 14 1 14 15
M  V30 15 1 15 16
M  V30 16 1 16 17
M  V30 17 1 17 18
M  V30 18 1 18 19
M  V30 END BOND
M  V30 END CTAB
M  END
>  <Molecule Name>
9-octadecenal

>  <Molecule Name 2>
9-octadecenal

>  <Database>
Essential Oil Database

>  <InChI>
InChI=1S/C18H34O/c1-2-3-4-5-6-7-8-9-10-11-12-13-14-15-16-17-18-19/h9-10,18H,2-8,11-17H2,1H3/b10-9+

>  <InChI-Key>
ZENZJGDPWWLORF-MDZDMXLPSA-N

>  <Smiles>
CCCCCCCC/C=C/CCCCCCCC=O

>  <Molecular Formula>
C18H34O

$$$$
9-octadecenol
Actelion Java MolfileCreator 2.0

  0  0  0  0  0  0              0 V3000
M  V30 BEGIN CTAB
M  V30 COUNTS 19 18 0 0 0
M  V30 BEGIN ATOM
M  V30 1 O 0.0 0.0 0.0 0
M  V30 2 C 1.2552 0.9165 0.0 0
M  V30 3 C 2.5105 0.1992 0.0 0
M  V30 4 C 3.7657 1.1157 0.0 0
M  V30 5 C 5.021 0.3984 0.0 0
M  V30 6 C 6.2762 1.315 0.0 0
M  V30 7 C 7.5315 0.5977 0.0 0
M  V30 8 C 8.7868 1.5142 0.0 0
M  V30 9 C 10.042 0.7969 0.0 0
M  V30 10 C 11.2973 1.7135 0.0 0
M  V30 11 C 12.5525 0.9962 0.0 0
M  V30 12 C 13.8078 1.9127 0.0 0
M  V30 13 C 15.063 1.1954 0.0 0
M  V30 14 C 16.3183 2.112 0.0 0
M  V30 15 C 17.5736 1.3947 0.0 0
M  V30 16 C 18.8288 2.3112 0.0 0
M  V30 17 C 20.0841 1.5939 0.0 0
M  V30 18 C 21.3393 2.5105 0.0 0
M  V30 19 C 22.5946 1.7932 0.0 0
M  V30 END ATOM
M  V30 BEGIN BOND
M  V30 1 1 1 2
M  V30 2 1 2 3
M  V30 3 1 3 4
M  V30 4 1 4 5
M  V30 5 1 5 6
M  V30 6 1 6 7
M  V30 7 1 7 8
M  V30 8 1 8 9
M  V30 9 1 9 10
M  V30 10 2 10 11
M  V30 11 1 11 12
M  V30 12 1 12 13
M  V30 13 1 13 14
M  V30 14 1 14 15
M  V30 15 1 15 16
M  V30 16 1 16 17
M  V30 17 1 17 18
M  V30 18 1 18 19
M  V30 END BOND
M  V30 END CTAB
M  END
>  <Molecule Name>
9-octadecenol

>  <Molecule Name 2>
9-octadecenol

>  <Database>
Essential Oil Database

>  <InChI>
InChI=1S/C18H36O/c1-2-3-4-5-6-7-8-9-10-11-12-13-14-15-16-17-18-19/h9-10,19H,2-8,11-18H2,1H3/b10-9+

>  <InChI-Key>
ALSTYHKOOCGGFT-MDZDMXLPSA-N

>  <Smiles>
CCCCCCCC/C=C/CCCCCCCCO

>  <Molecular Formula>
C18H36O

$$$$
nonyl acetate
Actelion Java MolfileCreator 2.0

  0  0  0  0  0  0              0 V3000
M  V30 BEGIN CTAB
M  V30 COUNTS 13 12 0 0 0
M  V30 BEGIN ATOM
M  V30 1 O 0.0 0.0 0.0 0
M  V30 2 C 1.2353 0.8824 0.0 0
M  V30 3 O 2.4707 0.1629 0.0 0
M  V30 4 C 1.0996 2.62 0.0 0
M  V30 5 C 3.7061 1.0453 0.0 0
M  V30 6 C 4.9414 0.3258 0.0 0
M  V30 7 C 6.1768 1.2082 0.0 0
M  V30 8 C 7.4122 0.4887 0.0 0
M  V30 9 C 8.6476 1.3711 0.0 0
M  V30 10 C 9.8829 0.6516 0.0 0
M  V30 11 C 11.1183 1.534 0.0 0
M  V30 12 C 12.3537 0.8145 0.0 0
M  V30 13 C 13.589 1.6969 0.0 0
M  V30 END ATOM
M  V30 BEGIN BOND
M  V30 1 2 1 2
M  V30 2 1 2 3
M  V30 3 1 2 4
M  V30 4 1 3 5
M  V30 5 1 5 6
M  V30 6 1 6 7
M  V30 7 1 7 8
M  V30 8 1 8 9
M  V30 9 1 9 10
M  V30 10 1 10 11
M  V30 11 1 11 12
M  V30 12 1 12 13
M  V30 END BOND
M  V30 END CTAB
M  END
>  <Molecule Name>
nonyl acetate

>  <Molecule Name 2>
nonyl acetate

>  <Database>
Essential Oil Database

>  <InChI>
InChI=1S/C11H22O2/c1-3-4-5-6-7-8-9-10-13-11(2)12/h3-10H2,1-2H3

>  <InChI-Key>
GJQIMXVRFNLMTB-UHFFFAOYSA-N

>  <Smiles>
CCCCCCCCCOC(C)=O

>  <Molecular Formula>
C11H22O2

$$$$
decyl acetate
Actelion Java MolfileCreator 2.0

  0  0  0  0  0  0              0 V3000
M  V30 BEGIN CTAB
M  V30 COUNTS 14 13 0 0 0
M  V30 BEGIN ATOM
M  V30 1 O 0.0 0.0 0.0 0
M  V30 2 C 1.2716 -0.6183 0.0 0
M  V30 3 O 2.5433 0.3383 0.0 0
M  V30 4 C 1.155 -2.0883 0.0 0
M  V30 5 C 3.815 -0.28 0.0 0
M  V30 6 C 5.0867 0.6766 0.0 0
M  V30 7 C 6.3583 0.0583 0.0 0
M  V30 8 C 7.63 1.0033 0.0 0
M  V30 9 C 8.9017 0.385 0.0 0
M  V30 10 C 10.1734 1.3416 0.0 0
M  V30 11 C 11.4451 0.7233 0.0 0
M  V30 12 C 12.7167 1.68 0.0 0
M  V30 13 C 13.9884 1.0616 0.0 0
M  V30 14 C 15.2601 2.0183 0.0 0
M  V30 END ATOM
M  V30 BEGIN BOND
M  V30 1 2 1 2
M  V30 2 1 2 3
M  V30 3 1 2 4
M  V30 4 1 3 5
M  V30 5 1 5 6
M  V30 6 1 6 7
M  V30 7 1 7 8
M  V30 8 1 8 9
M  V30 9 1 9 10
M  V30 10 1 10 11
M  V30 11 1 11 12
M  V30 12 1 12 13
M  V30 13 1 13 14
M  V30 END BOND
M  V30 END CTAB
M  END
>  <Molecule Name>
decyl acetate

>  <Molecule Name 2>
decyl acetate

>  <Database>
Essential Oil Database

>  <InChI>
InChI=1S/C12H24O2/c1-3-4-5-6-7-8-9-10-11-14-12(2)13/h3-11H2,1-2H3

>  <InChI-Key>
NUPSHWCALHZGOV-UHFFFAOYSA-N

>  <Smiles>
CCCCCCCCCCOC(C)=O

>  <Molecular Formula>
C12H24O2

$$$$
gamma-curcumene
Actelion Java MolfileCreator 2.0

  0  0  0  0  0  0              0 V3000
M  V30 BEGIN CTAB
M  V30 COUNTS 15 15 0 0 0
M  V30 BEGIN ATOM
M  V30 1 C 0.0 0.0 0.0 0
M  V30 2 C 1.1523 -0.6711 0.0 0
M  V30 3 C -0.1266 1.6209 0.0 0 CFG=2
M  V30 4 C -1.4056 -0.6711 0.0 0
M  V30 5 C 1.0257 -2.0388 0.0 0
M  V30 6 C -1.5323 2.444 0.0 0
M  V30 7 C 1.0257 2.444 0.0 0
M  V30 8 C -1.5323 -2.0388 0.0 0
M  V30 9 C -0.3799 -2.71 0.0 0
M  V30 10 C -1.6589 4.065 0.0 0
M  V30 11 C -0.5065 -4.0777 0.0 0
M  V30 12 C -3.0646 4.8881 0.0 0
M  V30 13 C -3.1912 6.5091 0.0 0
M  V30 14 C -4.5969 7.3322 0.0 0
M  V30 15 C -2.0388 7.3322 0.0 0
M  V30 END ATOM
M  V30 BEGIN BOND
M  V30 1 2 1 2
M  V30 2 1 1 3
M  V30 3 1 1 4
M  V30 4 1 2 5
M  V30 5 1 3 6
M  V30 6 1 3 7 CFG=3
M  V30 7 1 4 8
M  V30 8 2 5 9
M  V30 9 1 6 10
M  V30 10 1 9 11
M  V30 11 1 10 12
M  V30 12 2 12 13
M  V30 13 1 13 14
M  V30 14 1 13 15
M  V30 15 1 8 9
M  V30 END BOND
M  V30 BEGIN COLLECTION
M  V30 MDLV30/STERAC1 ATOMS=(1 3)
M  V30 END COLLECTION
M  V30 END CTAB
M  END
>  <Molecule Name>
gamma-curcumene

>  <Molecule Name 2>
gamma-curcumene

>  <Database>
Essential Oil Database

>  <InChI>
InChI=1S/C15H24/c1-12(2)6-5-7-14(4)15-10-8-13(3)9-11-15/h6,8,10,14H,5,7,9,11H2,1-4H3/t14-/m0/s1

>  <InChI-Key>
NGIVKZGKEPRIGG-AWEZNQCLSA-N

>  <Smiles>
CC(CCC=C(C)C)C1=CC=C(C)CC1

>  <Molecular Formula>
C15H24

$$$$
(z)-octadec-9-enal
Actelion Java MolfileCreator 2.0

  0  0  0  0  0  0              0 V3000
M  V30 BEGIN CTAB
M  V30 COUNTS 19 18 0 0 0
M  V30 BEGIN ATOM
M  V30 1 O 0.0 0.0 0.0 0
M  V30 2 C 0.6091 1.471 0.0 0
M  V30 3 C 2.0456 1.5859 0.0 0
M  V30 4 C 2.6547 3.057 0.0 0
M  V30 5 C 4.0913 3.1719 0.0 0
M  V30 6 C 4.7004 4.6429 0.0 0
M  V30 7 C 6.137 4.7579 0.0 0
M  V30 8 C 6.7461 3.5167 0.0 0
M  V30 9 C 5.8152 2.2755 0.0 0
M  V30 10 C 6.4243 1.0343 0.0 0
M  V30 11 C 7.8609 1.1492 0.0 0
M  V30 12 C 8.4815 2.6203 0.0 0
M  V30 13 C 9.918 2.7352 0.0 0
M  V30 14 C 10.5271 4.2062 0.0 0
M  V30 15 C 11.9637 4.3212 0.0 0
M  V30 16 C 12.5843 5.7922 0.0 0
M  V30 17 C 14.0209 5.9071 0.0 0
M  V30 18 C 14.63 7.3782 0.0 0
M  V30 19 C 16.0666 7.4931 0.0 0
M  V30 END ATOM
M  V30 BEGIN BOND
M  V30 1 2 1 2
M  V30 2 1 2 3
M  V30 3 1 3 4
M  V30 4 1 4 5
M  V30 5 1 5 6
M  V30 6 1 6 7
M  V30 7 1 7 8
M  V30 8 1 8 9
M  V30 9 1 9 10
M  V30 10 2 10 11
M  V30 11 1 11 12
M  V30 12 1 12 13
M  V30 13 1 13 14
M  V30 14 1 14 15
M  V30 15 1 15 16
M  V30 16 1 16 17
M  V30 17 1 17 18
M  V30 18 1 18 19
M  V30 END BOND
M  V30 END CTAB
M  END
>  <Molecule Name>
(z)-octadec-9-enal

>  <Molecule Name 2>
(z)-octadec-9-enal

>  <Database>
Essential Oil Database

>  <InChI>
InChI=1S/C18H34O/c1-2-3-4-5-6-7-8-9-10-11-12-13-14-15-16-17-18-19/h9-10,18H,2-8,11-17H2,1H3/b10-9-

>  <InChI-Key>
ZENZJGDPWWLORF-KTKRTIGZSA-N

>  <Smiles>
CCCCCCCC/C=C\CCCCCCCC=O

>  <Molecular Formula>
C18H34O

$$$$
dihydrocitronellol
Actelion Java MolfileCreator 2.0

  0  0  0  0  0  0              0 V3000
M  V30 BEGIN CTAB
M  V30 COUNTS 11 10 0 0 0
M  V30 BEGIN ATOM
M  V30 1 O 0.0 0.0 0.0 0
M  V30 2 C -1.3588 -0.5732 0.0 0
M  V30 3 C -2.7177 0.2866 0.0 0
M  V30 4 C -4.0766 -0.2866 0.0 0 CFG=2
M  V30 5 C -5.4354 0.5732 0.0 0
M  V30 6 C -4.1827 -1.6136 0.0 0
M  V30 7 C -6.7943 0.0 0.0 0
M  V30 8 C -8.1532 0.8599 0.0 0
M  V30 9 C -9.512 0.2866 0.0 0
M  V30 10 C -10.8709 1.1571 0.0 0
M  V30 11 C -9.6182 -1.0403 0.0 0
M  V30 END ATOM
M  V30 BEGIN BOND
M  V30 1 1 1 2
M  V30 2 1 2 3
M  V30 3 1 3 4
M  V30 4 1 4 5
M  V30 5 1 4 6 CFG=1
M  V30 6 1 5 7
M  V30 7 1 7 8
M  V30 8 1 8 9
M  V30 9 1 9 10
M  V30 10 1 9 11
M  V30 END BOND
M  V30 BEGIN COLLECTION
M  V30 MDLV30/STERAC1 ATOMS=(1 4)
M  V30 END COLLECTION
M  V30 END CTAB
M  END
>  <Molecule Name>
dihydrocitronellol

>  <Molecule Name 2>
dihydrocitronellol

>  <Database>
Essential Oil Database

>  <InChI>
InChI=1S/C10H22O/c1-9(2)5-4-6-10(3)7-8-11/h9-11H,4-8H2,1-3H3/t10-/m0/s1

>  <InChI-Key>
PRNCMAKCNVRZFX-JTQLQIEISA-N

>  <Smiles>
CC(C)CCCC(C)CCO

>  <Molecular Formula>
C10H22O

$$$$
dihydrocarvyl acetate
Actelion Java MolfileCreator 2.0

  0  0  0  0  0  0              0 V3000
M  V30 BEGIN CTAB
M  V30 COUNTS 14 14 0 0 0
M  V30 BEGIN ATOM
M  V30 1 O 0.0 0.0 0.0 0
M  V30 2 C -1.4732 -0.7034 0.0 0
M  V30 3 O -1.6059 -2.1368 0.0 0
M  V30 4 C -2.9465 0.1459 0.0 0
M  V30 5 C -0.3981 -2.8403 0.0 0
M  V30 6 C 0.8096 -1.9776 0.0 0
M  V30 7 C -0.5309 -4.2737 0.0 0
M  V30 8 C 2.0174 -2.681 0.0 0
M  V30 9 C 0.6769 -0.2787 0.0 0
M  V30 10 C 0.6769 -4.9772 0.0 0
M  V30 11 C 1.8847 -4.1144 0.0 0
M  V30 12 C 0.5441 -6.4106 0.0 0
M  V30 13 C -0.929 -7.1273 0.0 0
M  V30 14 C 1.7519 -7.1273 0.0 0
M  V30 END ATOM
M  V30 BEGIN BOND
M  V30 1 2 1 2
M  V30 2 1 2 3
M  V30 3 1 2 4
M  V30 4 1 3 5
M  V30 5 1 5 6
M  V30 6 1 5 7
M  V30 7 1 6 8
M  V30 8 1 6 9
M  V30 9 1 7 10
M  V30 10 1 8 11
M  V30 11 1 10 12
M  V30 12 2 12 13
M  V30 13 1 12 14
M  V30 14 1 10 11
M  V30 END BOND
M  V30 END CTAB
M  END
>  <Molecule Name>
dihydrocarvyl acetate

>  <Molecule Name 2>
dihydrocarvyl acetate

>  <Database>
Essential Oil Database

>  <InChI>
InChI=1S/C12H20O2/c1-8(2)11-6-5-9(3)12(7-11)14-10(4)13/h9,11-12H,1,5-7H2,2-4H3

>  <InChI-Key>
TUSIZTVSUSBSQI-UHFFFAOYSA-N

>  <Smiles>
CC(CCC(C1)C(C)=C)C1OC(C)=O

>  <Molecular Formula>
C12H20O2

$$$$
2-(1,2,6,7,8,8a-hexahydro-8,8a-dimethyl-2-naphthyl)-propan-2-ol
Actelion Java MolfileCreator 2.0

  0  0  0  0  0  0              0 V3000
M  V30 BEGIN CTAB
M  V30 COUNTS 16 17 0 0 0
M  V30 BEGIN ATOM
M  V30 1 O 0.0 0.0 0.0 0
M  V30 2 C 0.6448 1.3505 0.0 0
M  V30 3 C -0.7056 2.1413 0.0 0
M  V30 4 C 1.752 0.6935 0.0 0
M  V30 5 C 1.3018 2.701 0.0 0
M  V30 6 C -0.8273 3.6986 0.0 0
M  V30 7 C -2.0561 1.4843 0.0 0
M  V30 8 C -2.1778 4.5016 0.0 0
M  V30 9 C -3.4066 2.2751 0.0 0
M  V30 10 C -3.5283 3.8568 0.0 0
M  V30 11 C -4.7571 1.6181 0.0 0
M  V30 12 C -3.5283 0.9611 0.0 0
M  V30 13 C -4.8788 4.6476 0.0 0
M  V30 14 C -6.1076 2.409 0.0 0
M  V30 15 C -4.8788 0.3041 0.0 0
M  V30 16 C -6.2293 4.0028 0.0 0
M  V30 END ATOM
M  V30 BEGIN BOND
M  V30 1 1 1 2
M  V30 2 1 2 3
M  V30 3 1 2 4
M  V30 4 1 2 5
M  V30 5 1 3 6
M  V30 6 1 3 7
M  V30 7 2 6 8
M  V30 8 1 7 9
M  V30 9 1 8 10
M  V30 10 1 9 11
M  V30 11 1 9 12
M  V30 12 2 10 13
M  V30 13 1 11 14
M  V30 14 1 11 15
M  V30 15 1 13 16
M  V30 16 1 9 10
M  V30 17 1 14 16
M  V30 END BOND
M  V30 END CTAB
M  END
>  <Molecule Name>
2-(1,2,6,7,8,8a-hexahydro-8,8a-dimethyl-2-naphthyl)-propan-2-ol

>  <Molecule Name 2>
2-(1,2,6,7,8,8a-hexahydro-8,8a-dimethyl-2-naphthyl)-propan-2-ol

>  <Database>
Essential Oil Database

>  <InChI>
InChI=1S/C15H24O/c1-11-6-5-7-12-8-9-13(14(2,3)16)10-15(11,12)4/h7-9,11,13,16H,5-6,10H2,1-4H3

>  <InChI-Key>
OFAJYTMZPVHMTL-UHFFFAOYSA-N

>  <Smiles>
CC1C(C)(CC(C(C)(C)O)C=C2)C2=CCC1

>  <Molecular Formula>
C15H24O

$$$$
1,5-diphenyl-2-pentene
Actelion Java MolfileCreator 2.0

  0  0  0  0  0  0              0 V3000
M  V30 BEGIN CTAB
M  V30 COUNTS 17 18 0 0 0
M  V30 BEGIN ATOM
M  V30 1 C 0.0 0.0 0.0 0
M  V30 2 C 1.1165 -0.6502 0.0 0
M  V30 3 C -1.3619 -0.6502 0.0 0
M  V30 4 C -0.1226 1.5704 0.0 0
M  V30 5 C 0.9938 -1.9753 0.0 0
M  V30 6 C -1.4846 -1.9753 0.0 0
M  V30 7 C -1.4846 2.368 0.0 0
M  V30 8 C -0.368 -2.6379 0.0 0
M  V30 9 C -1.6072 3.9384 0.0 0
M  V30 10 C -2.9692 4.736 0.0 0
M  V30 11 C -4.3311 4.0734 0.0 0
M  V30 12 C -5.693 4.8709 0.0 0
M  V30 13 C -7.0549 4.2084 0.0 0
M  V30 14 C -5.8157 6.4414 0.0 0
M  V30 15 C -8.4168 5.0059 0.0 0
M  V30 16 C -7.1776 7.2267 0.0 0
M  V30 17 C -8.5395 6.5764 0.0 0
M  V30 END ATOM
M  V30 BEGIN BOND
M  V30 1 2 1 2
M  V30 2 1 1 3
M  V30 3 1 1 4
M  V30 4 1 2 5
M  V30 5 2 3 6
M  V30 6 1 4 7
M  V30 7 2 5 8
M  V30 8 2 7 9
M  V30 9 1 9 10
M  V30 10 1 10 11
M  V30 11 1 11 12
M  V30 12 2 12 13
M  V30 13 1 12 14
M  V30 14 1 13 15
M  V30 15 2 14 16
M  V30 16 2 15 17
M  V30 17 1 6 8
M  V30 18 1 16 17
M  V30 END BOND
M  V30 END CTAB
M  END
>  <Molecule Name>
1,5-diphenyl-2-pentene

>  <Molecule Name 2>
1,5-diphenyl-2-pentene

>  <Database>
Essential Oil Database

>  <InChI>
InChI=1S/C17H18/c1-4-10-16(11-5-1)14-8-3-9-15-17-12-6-2-7-13-17/h1-8,10-13H,9,14-15H2/b8-3+

>  <InChI-Key>
JGOZVYDIWQEWAS-FPYGCLRLSA-N

>  <Smiles>
C(Cc1ccccc1)/C=C/Cc1ccccc1

>  <Molecular Formula>
C17H18

$$$$
1,5-diphenyl-3-pentanone
Actelion Java MolfileCreator 2.0

  0  0  0  0  0  0              0 V3000
M  V30 BEGIN CTAB
M  V30 COUNTS 18 19 0 0 0
M  V30 BEGIN ATOM
M  V30 1 O 0.0 0.0 0.0 0
M  V30 2 C -0.1129 -1.4115 0.0 0
M  V30 3 C -1.5583 -2.01 0.0 0
M  V30 4 C 1.1066 -2.01 0.0 0
M  V30 5 C -3.0038 -1.0953 0.0 0
M  V30 6 C 2.3262 -1.0953 0.0 0
M  V30 7 C -4.4493 -1.6938 0.0 0
M  V30 8 C 3.5458 -1.6938 0.0 0
M  V30 9 C -4.5622 -3.1054 0.0 0
M  V30 10 C -5.8947 -0.7791 0.0 0
M  V30 11 C 4.7655 -0.7791 0.0 0
M  V30 12 C 3.4329 -3.1054 0.0 0
M  V30 13 C -6.0076 -3.7152 0.0 0
M  V30 14 C -7.3402 -1.3777 0.0 0
M  V30 15 C 5.9851 -1.3777 0.0 0
M  V30 16 C 4.6525 -3.7152 0.0 0
M  V30 17 C -7.4531 -2.7892 0.0 0
M  V30 18 C 5.8721 -2.7892 0.0 0
M  V30 END ATOM
M  V30 BEGIN BOND
M  V30 1 2 1 2
M  V30 2 1 2 3
M  V30 3 1 2 4
M  V30 4 1 3 5
M  V30 5 1 4 6
M  V30 6 1 5 7
M  V30 7 1 6 8
M  V30 8 2 7 9
M  V30 9 1 7 10
M  V30 10 2 8 11
M  V30 11 1 8 12
M  V30 12 1 9 13
M  V30 13 2 10 14
M  V30 14 1 11 15
M  V30 15 2 12 16
M  V30 16 2 13 17
M  V30 17 2 15 18
M  V30 18 1 14 17
M  V30 19 1 16 18
M  V30 END BOND
M  V30 END CTAB
M  END
>  <Molecule Name>
1,5-diphenyl-3-pentanone

>  <Molecule Name 2>
1,5-diphenyl-3-pentanone

>  <Database>
Essential Oil Database

>  <InChI>
InChI=1S/C17H18O/c18-17(13-11-15-7-3-1-4-8-15)14-12-16-9-5-2-6-10-16/h1-10H,11-14H2

>  <InChI-Key>
JENANTGGBLOTIB-UHFFFAOYSA-N

>  <Smiles>
O=C(CCc1ccccc1)CCc1ccccc1

>  <Molecular Formula>
C17H18O

$$$$
2-heptadecanone
Actelion Java MolfileCreator 2.0

  0  0  0  0  0  0              0 V3000
M  V30 BEGIN CTAB
M  V30 COUNTS 18 17 0 0 0
M  V30 BEGIN ATOM
M  V30 1 O 0.0 0.0 0.0 0
M  V30 2 C -0.1347 1.7248 0.0 0
M  V30 3 C 1.0914 2.6007 0.0 0
M  V30 4 C -1.6304 2.6007 0.0 0
M  V30 5 C 2.3177 1.873 0.0 0
M  V30 6 C 3.5439 2.7489 0.0 0
M  V30 7 C 4.7701 2.0212 0.0 0
M  V30 8 C 5.9964 2.8971 0.0 0
M  V30 9 C 7.2226 2.1694 0.0 0
M  V30 10 C 8.4489 3.0453 0.0 0
M  V30 11 C 9.6751 2.3177 0.0 0
M  V30 12 C 10.9013 3.1936 0.0 0
M  V30 13 C 12.1276 2.4659 0.0 0
M  V30 14 C 13.3538 3.3418 0.0 0
M  V30 15 C 14.58 2.6141 0.0 0
M  V30 16 C 15.8063 3.49 0.0 0
M  V30 17 C 17.0325 2.7624 0.0 0
M  V30 18 C 18.2588 3.6382 0.0 0
M  V30 END ATOM
M  V30 BEGIN BOND
M  V30 1 2 1 2
M  V30 2 1 2 3
M  V30 3 1 2 4
M  V30 4 1 3 5
M  V30 5 1 5 6
M  V30 6 1 6 7
M  V30 7 1 7 8
M  V30 8 1 8 9
M  V30 9 1 9 10
M  V30 10 1 10 11
M  V30 11 1 11 12
M  V30 12 1 12 13
M  V30 13 1 13 14
M  V30 14 1 14 15
M  V30 15 1 15 16
M  V30 16 1 16 17
M  V30 17 1 17 18
M  V30 END BOND
M  V30 END CTAB
M  END
>  <Molecule Name>
2-heptadecanone

>  <Molecule Name 2>
2-heptadecanone

>  <Database>
Essential Oil Database

>  <InChI>
InChI=1S/C17H34O/c1-3-4-5-6-7-8-9-10-11-12-13-14-15-16-17(2)18/h3-16H2,1-2H3

>  <InChI-Key>
TVTCXPXLRKTHAU-UHFFFAOYSA-N

>  <Smiles>
CCCCCCCCCCCCCCCC(C)=O

>  <Molecular Formula>
C17H34O

$$$$
4-(4-methoxyphenyl)-2-butanone
Actelion Java MolfileCreator 2.0

  0  0  0  0  0  0              0 V3000
M  V30 BEGIN CTAB
M  V30 COUNTS 13 13 0 0 0
M  V30 BEGIN ATOM
M  V30 1 O 0.0 0.0 0.0 0
M  V30 2 C -1.4882 -0.6278 0.0 0
M  V30 3 C -1.6045 -2.0812 0.0 0
M  V30 4 C -2.9765 0.3255 0.0 0
M  V30 5 C -0.3488 -2.6974 0.0 0
M  V30 6 C -0.465 -4.1508 0.0 0
M  V30 7 C 0.7906 -4.767 0.0 0
M  V30 8 C -1.9533 -4.767 0.0 0
M  V30 9 C 0.6743 -6.2204 0.0 0
M  V30 10 C -2.0696 -6.2204 0.0 0
M  V30 11 C -0.8138 -6.8367 0.0 0
M  V30 12 O -0.9301 -8.29 0.0 0
M  V30 13 C 0.3255 -8.9295 0.0 0
M  V30 END ATOM
M  V30 BEGIN BOND
M  V30 1 2 1 2
M  V30 2 1 2 3
M  V30 3 1 2 4
M  V30 4 1 3 5
M  V30 5 1 5 6
M  V30 6 2 6 7
M  V30 7 1 6 8
M  V30 8 1 7 9
M  V30 9 2 8 10
M  V30 10 2 9 11
M  V30 11 1 11 12
M  V30 12 1 12 13
M  V30 13 1 10 11
M  V30 END BOND
M  V30 END CTAB
M  END
>  <Molecule Name>
4-(4-methoxyphenyl)-2-butanone

>  <Molecule Name 2>
4-(4-methoxyphenyl)-2-butanone

>  <Database>
Essential Oil Database

>  <InChI>
InChI=1S/C11H14O2/c1-9(12)3-4-10-5-7-11(13-2)8-6-10/h5-8H,3-4H2,1-2H3

>  <InChI-Key>
PCBSXBYCASFXTM-UHFFFAOYSA-N

>  <Smiles>
CC(CCc(cc1)ccc1OC)=O

>  <Molecular Formula>
C11H14O2

$$$$
cyclohexanecarboxylic acid
Actelion Java MolfileCreator 2.0

  0  0  0  0  0  0              0 V3000
M  V30 BEGIN CTAB
M  V30 COUNTS 9 9 0 0 0
M  V30 BEGIN ATOM
M  V30 1 O 0.0 0.0 0.0 0
M  V30 2 C -1.4602 -0.6046 0.0 0
M  V30 3 O -2.9204 0.308 0.0 0
M  V30 4 C -1.5743 -2.0306 0.0 0
M  V30 5 C -0.3422 -2.6352 0.0 0
M  V30 6 C -3.0345 -2.6352 0.0 0
M  V30 7 C -0.4563 -4.0612 0.0 0
M  V30 8 C -3.1486 -4.0612 0.0 0
M  V30 9 C -1.9165 -4.6659 0.0 0
M  V30 END ATOM
M  V30 BEGIN BOND
M  V30 1 2 1 2
M  V30 2 1 2 3
M  V30 3 1 2 4
M  V30 4 1 4 5
M  V30 5 1 4 6
M  V30 6 1 5 7
M  V30 7 1 6 8
M  V30 8 1 7 9
M  V30 9 1 8 9
M  V30 END BOND
M  V30 END CTAB
M  END
>  <Molecule Name>
cyclohexanecarboxylic acid

>  <Molecule Name 2>
cyclohexanecarboxylic acid

>  <Database>
Essential Oil Database

>  <InChI>
InChI=1S/C7H12O2/c8-7(9)6-4-2-1-3-5-6/h6H,1-5H2,(H,8,9)

>  <InChI-Key>
NZNMSOFKMUBTKW-UHFFFAOYSA-N

>  <Smiles>
OC(C1CCCCC1)=O

>  <Molecular Formula>
C7H12O2

$$$$
(e)-oleic acid
Actelion Java MolfileCreator 2.0

  0  0  0  0  0  0              0 V3000
M  V30 BEGIN CTAB
M  V30 COUNTS 20 19 0 0 0
M  V30 BEGIN ATOM
M  V30 1 O 0.0 0.0 0.0 0
M  V30 2 C -0.1194 1.5292 0.0 0
M  V30 3 O 0.9677 2.3058 0.0 0
M  V30 4 C -1.4456 2.3058 0.0 0
M  V30 5 C -2.7718 1.6607 0.0 0
M  V30 6 C -4.098 2.4373 0.0 0
M  V30 7 C -5.4242 1.7921 0.0 0
M  V30 8 C -6.7504 2.5687 0.0 0
M  V30 9 C -8.0766 1.9235 0.0 0
M  V30 10 C -9.4027 2.7001 0.0 0
M  V30 11 C -10.7289 2.0549 0.0 0
M  V30 12 C -12.0551 2.8315 0.0 0
M  V30 13 C -13.3813 2.1864 0.0 0
M  V30 14 C -14.7075 2.963 0.0 0
M  V30 15 C -16.0337 2.3178 0.0 0
M  V30 16 C -17.3599 3.0944 0.0 0
M  V30 17 C -18.6861 2.4492 0.0 0
M  V30 18 C -20.0123 3.2258 0.0 0
M  V30 19 C -21.3384 2.5806 0.0 0
M  V30 20 C -22.6646 3.3572 0.0 0
M  V30 END ATOM
M  V30 BEGIN BOND
M  V30 1 2 1 2
M  V30 2 1 2 3
M  V30 3 1 2 4
M  V30 4 1 4 5
M  V30 5 1 5 6
M  V30 6 1 6 7
M  V30 7 1 7 8
M  V30 8 1 8 9
M  V30 9 1 9 10
M  V30 10 1 10 11
M  V30 11 2 11 12
M  V30 12 1 12 13
M  V30 13 1 13 14
M  V30 14 1 14 15
M  V30 15 1 15 16
M  V30 16 1 16 17
M  V30 17 1 17 18
M  V30 18 1 18 19
M  V30 19 1 19 20
M  V30 END BOND
M  V30 END CTAB
M  END
>  <Molecule Name>
(e)-oleic acid

>  <Molecule Name 2>
(e)-oleic acid

>  <Database>
Essential Oil Database

>  <InChI>
InChI=1S/C18H34O2/c1-2-3-4-5-6-7-8-9-10-11-12-13-14-15-16-17-18(19)20/h9-10H,2-8,11-17H2,1H3,(H,19,20)/b10-9+

>  <InChI-Key>
ZQPPMHVWECSIRJ-MDZDMXLPSA-N

>  <Smiles>
CCCCCCCC/C=C/CCCCCCCC(O)=O

>  <Molecular Formula>
C18H34O2

$$$$
propyl heptanoate
Actelion Java MolfileCreator 2.0

  0  0  0  0  0  0              0 V3000
M  V30 BEGIN CTAB
M  V30 COUNTS 12 11 0 0 0
M  V30 BEGIN ATOM
M  V30 1 O 0.0 0.0 0.0 0
M  V30 2 C -0.109 -1.3628 0.0 0
M  V30 3 O 1.0684 -1.9625 0.0 0
M  V30 4 C -1.5046 -1.9625 0.0 0
M  V30 5 C 2.2459 -1.0684 0.0 0
M  V30 6 C -2.9001 -1.0684 0.0 0
M  V30 7 C 3.4235 -1.6572 0.0 0
M  V30 8 C -4.2957 -1.6572 0.0 0
M  V30 9 C 4.601 -0.7632 0.0 0
M  V30 10 C -5.6913 -0.7632 0.0 0
M  V30 11 C -7.0868 -1.3955 0.0 0
M  V30 12 C -8.4824 -0.5015 0.0 0
M  V30 END ATOM
M  V30 BEGIN BOND
M  V30 1 2 1 2
M  V30 2 1 2 3
M  V30 3 1 2 4
M  V30 4 1 3 5
M  V30 5 1 4 6
M  V30 6 1 5 7
M  V30 7 1 6 8
M  V30 8 1 7 9
M  V30 9 1 8 10
M  V30 10 1 10 11
M  V30 11 1 11 12
M  V30 END BOND
M  V30 END CTAB
M  END
>  <Molecule Name>
propyl heptanoate

>  <Molecule Name 2>
propyl heptanoate

>  <Database>
Essential Oil Database

>  <InChI>
InChI=1S/C10H20O2/c1-3-5-6-7-8-10(11)12-9-4-2/h3-9H2,1-2H3

>  <InChI-Key>
UWZVPQKWYFZLLW-UHFFFAOYSA-N

>  <Smiles>
CCCCCCC(OCCC)=O

>  <Molecular Formula>
C10H20O2

$$$$
dihydroagarofuran
Actelion Java MolfileCreator 2.0

  0  0  0  0  0  0              0 V3000
M  V30 BEGIN CTAB
M  V30 COUNTS 16 18 0 0 0
M  V30 BEGIN ATOM
M  V30 1 O 0.0 0.0 0.0 0
M  V30 2 C 1.1715 -0.8786 0.0 0 CFG=2
M  V30 3 C -1.5025 -0.7385 0.0 0
M  V30 4 C 1.8336 -2.1774 0.0 0 CFG=2
M  V30 5 C 2.0246 0.4456 0.0 0 CFG=1
M  V30 6 C -0.0509 -1.5153 0.0 0
M  V30 7 C -1.2606 -2.1647 0.0 0 CFG=1
M  V30 8 C -2.534 0.5857 0.0 0
M  V30 9 C -3.1325 -0.7894 0.0 0
M  V30 10 C 0.9677 -3.4508 0.0 0
M  V30 11 C 3.2343 -2.1902 0.0 0
M  V30 12 C 2.4576 -3.3744 0.0 0
M  V30 13 C 3.4253 0.4202 0.0 0
M  V30 14 C 1.2861 1.9737 0.0 0
M  V30 15 C -0.6112 -3.4381 0.0 0
M  V30 16 C 3.9856 -0.8276 0.0 0
M  V30 END ATOM
M  V30 BEGIN BOND
M  V30 1 1 2 1 CFG=1
M  V30 2 1 1 3
M  V30 3 1 2 4
M  V30 4 1 2 5
M  V30 5 1 2 6
M  V30 6 1 3 7
M  V30 7 1 3 8
M  V30 8 1 3 9
M  V30 9 1 4 10
M  V30 10 1 4 11
M  V30 11 1 4 12 CFG=3
M  V30 12 1 5 13
M  V30 13 1 5 14 CFG=3
M  V30 14 1 7 15 CFG=1
M  V30 15 1 11 16
M  V30 16 1 6 7
M  V30 17 1 10 15
M  V30 18 1 13 16
M  V30 END BOND
M  V30 BEGIN COLLECTION
M  V30 MDLV30/STERAC1 ATOMS=(4 2 4 5 7)
M  V30 END COLLECTION
M  V30 END CTAB
M  END
>  <Molecule Name>
dihydroagarofuran

>  <Molecule Name 2>
dihydroagarofuran

>  <Database>
Essential Oil Database

>  <InChI>
InChI=1S/C15H26O/c1-11-6-5-8-14(4)9-7-12-10-15(11,14)16-13(12,2)3/h11-12H,5-10H2,1-4H3/t11-,12-,14+,15+/m1/s1

>  <InChI-Key>
HVAVUZLEYSAYGE-UXOAXIEHSA-N

>  <Smiles>
C[C@H]1[C@]2(C3)OC(C)(C)[C@@H]3CC[C@]2(C)CCC1

>  <Molecular Formula>
C15H26O

$$$$
manool
Actelion Java MolfileCreator 2.0

  0  0  0  0  0  0              0 V3000
M  V30 BEGIN CTAB
M  V30 COUNTS 21 22 0 0 0
M  V30 BEGIN ATOM
M  V30 1 O 0.0 0.0 0.0 0
M  V30 2 C -1.6032 0.1252 0.0 0 CFG=2
M  V30 3 C -1.7284 -1.2274 0.0 0
M  V30 4 C -1.7284 1.7284 0.0 0
M  V30 5 C -3.2064 0.2505 0.0 0
M  V30 6 C -0.5886 -1.8913 0.0 0
M  V30 7 C -3.1188 2.5426 0.0 0
M  V30 8 C -3.244 4.1458 0.0 0 CFG=2
M  V30 9 C -4.6343 4.96 0.0 0
M  V30 10 C -2.1042 4.96 0.0 0 CFG=1
M  V30 11 C -6.0246 4.2836 0.0 0
M  V30 12 C -4.7596 6.5632 0.0 0
M  V30 13 C -2.2295 6.5632 0.0 0 CFG=2
M  V30 14 C -0.9644 4.2836 0.0 0
M  V30 15 C -2.2295 3.6072 0.0 0
M  V30 16 C -3.6198 7.3774 0.0 0
M  V30 17 C -1.0897 7.3774 0.0 0
M  V30 18 C 0.1753 5.0977 0.0 0
M  V30 19 C 0.0501 6.7135 0.0 0
M  V30 20 C -2.1293 8.6048 0.0 0
M  V30 21 C -0.3006 8.6048 0.0 0
M  V30 END ATOM
M  V30 BEGIN BOND
M  V30 1 1 1 2
M  V30 2 1 2 3
M  V30 3 1 2 4
M  V30 4 1 2 5 CFG=1
M  V30 5 2 3 6
M  V30 6 1 4 7
M  V30 7 1 8 7 CFG=3
M  V30 8 1 8 9
M  V30 9 1 8 10
M  V30 10 2 9 11
M  V30 11 1 9 12
M  V30 12 1 10 13
M  V30 13 1 10 14
M  V30 14 1 10 15 CFG=3
M  V30 15 1 12 16
M  V30 16 1 13 17
M  V30 17 1 14 18
M  V30 18 1 17 19
M  V30 19 1 17 20
M  V30 20 1 17 21
M  V30 21 1 13 16 CFG=3
M  V30 22 1 18 19
M  V30 END BOND
M  V30 BEGIN COLLECTION
M  V30 MDLV30/STERAC1 ATOMS=(4 2 8 10 13)
M  V30 END COLLECTION
M  V30 END CTAB
M  END
>  <Molecule Name>
manool

>  <Molecule Name 2>
manool

>  <Database>
Essential Oil Database

>  <InChI>
InChI=1S/C20H34O/c1-7-19(5,21)14-11-16-15(2)9-10-17-18(3,4)12-8-13-20(16,17)6/h7,16-17,21H,1-2,8-14H2,3-6H3/t16-,17-,19-,20+/m1/s1

>  <InChI-Key>
CECREIRZLPLYDM-LFGUQSLTSA-N

>  <Smiles>
C[C@](CC[C@@H]([C@@]1(C)[C@H](CC2)C(C)(C)CCC1)C2=C)(C=C)O

>  <Molecular Formula>
C20H34O

$$$$
trans-p-mentha-1(7),2-dien-8-ol
Actelion Java MolfileCreator 2.0

  0  0  0  0  0  0              0 V3000
M  V30 BEGIN CTAB
M  V30 COUNTS 11 11 0 0 0
M  V30 BEGIN ATOM
M  V30 1 O 0.0 0.0 0.0 0
M  V30 2 C 1.3501 0.125 0.0 0
M  V30 3 C 1.2251 1.7251 0.0 0 CFG=1
M  V30 4 C 1.2251 -1.2251 0.0 0
M  V30 5 C 2.7002 0.25 0.0 0
M  V30 6 C -0.1625 2.5377 0.0 0
M  V30 7 C 2.3627 2.5377 0.0 0
M  V30 8 C -0.2875 4.1379 0.0 0
M  V30 9 C 2.2377 4.1379 0.0 0
M  V30 10 C 0.85 4.9504 0.0 0
M  V30 11 C 0.725 6.5506 0.0 0
M  V30 END ATOM
M  V30 BEGIN BOND
M  V30 1 1 1 2
M  V30 2 1 3 2 CFG=1
M  V30 3 1 2 4
M  V30 4 1 2 5
M  V30 5 1 3 6
M  V30 6 1 3 7
M  V30 7 2 6 8
M  V30 8 1 7 9
M  V30 9 1 8 10
M  V30 10 2 10 11
M  V30 11 1 9 10
M  V30 END BOND
M  V30 BEGIN COLLECTION
M  V30 MDLV30/STERAC1 ATOMS=(1 3)
M  V30 END COLLECTION
M  V30 END CTAB
M  END
>  <Molecule Name>
trans-p-mentha-1(7),2-dien-8-ol

>  <Molecule Name 2>
trans-p-mentha-1(7),2-dien-8-ol

>  <Database>
Essential Oil Database

>  <InChI>
InChI=1S/C10H16O/c1-8-4-6-9(7-5-8)10(2,3)11/h4,6,9,11H,1,5,7H2,2-3H3/t9-/m0/s1

>  <InChI-Key>
YGYSWSPXSCQPRC-VIFPVBQESA-N

>  <Smiles>
CC(C)(C(CC1)C=CC1=C)O

>  <Molecular Formula>
C10H16O

$$$$
2-methyl-6-methylene-3,7-octadien-2-ol
Actelion Java MolfileCreator 2.0

  0  0  0  0  0  0              0 V3000
M  V30 BEGIN CTAB
M  V30 COUNTS 11 10 0 0 0
M  V30 BEGIN ATOM
M  V30 1 O 0.0 0.0 0.0 0
M  V30 2 C 1.2195 -0.7102 0.0 0
M  V30 3 C 0.335 -1.9298 0.0 0
M  V30 4 C 1.9432 0.7772 0.0 0
M  V30 5 C 2.439 -1.4339 0.0 0
M  V30 6 C -1.3803 -1.7958 0.0 0
M  V30 7 C -2.2648 -3.0153 0.0 0
M  V30 8 C -1.5545 -4.2348 0.0 0
M  V30 9 C -2.439 -5.4544 0.0 0
M  V30 10 C -0.1072 -4.1008 0.0 0
M  V30 11 C -1.7287 -6.6739 0.0 0
M  V30 END ATOM
M  V30 BEGIN BOND
M  V30 1 1 1 2
M  V30 2 1 2 3
M  V30 3 1 2 4
M  V30 4 1 2 5
M  V30 5 2 3 6
M  V30 6 1 6 7
M  V30 7 1 7 8
M  V30 8 1 8 9
M  V30 9 2 8 10
M  V30 10 2 9 11
M  V30 END BOND
M  V30 END CTAB
M  END
>  <Molecule Name>
2-methyl-6-methylene-3,7-octadien-2-ol

>  <Molecule Name 2>
2-methyl-6-methylene-3,7-octadien-2-ol

>  <Database>
Essential Oil Database

>  <InChI>
InChI=1S/C10H16O/c1-5-9(2)7-6-8-10(3,4)11/h5-6,8,11H,1-2,7H2,3-4H3/b8-6+

>  <InChI-Key>
NOEQSPUVXRMJBW-SOFGYWHQSA-N

>  <Smiles>
CC(C)(/C=C/CC(C=C)=C)O

>  <Molecular Formula>
C10H16O

$$$$
6-methyl-3-heptanol
Actelion Java MolfileCreator 2.0

  0  0  0  0  0  0              0 V3000
M  V30 BEGIN CTAB
M  V30 COUNTS 9 8 0 0 0
M  V30 BEGIN ATOM
M  V30 1 O 0.0 0.0 0.0 0
M  V30 2 C -0.1136 -1.4202 0.0 0 CFG=2
M  V30 3 C 1.1134 -2.0565 0.0 0
M  V30 4 C -1.5679 -2.0565 0.0 0
M  V30 5 C 2.3406 -1.1248 0.0 0
M  V30 6 C -3.0223 -1.1248 0.0 0
M  V30 7 C 3.5677 -1.7384 0.0 0
M  V30 8 C 4.7948 -0.8067 0.0 0
M  V30 9 C 3.4541 -3.1586 0.0 0
M  V30 END ATOM
M  V30 BEGIN BOND
M  V30 1 1 2 1 CFG=3
M  V30 2 1 2 3
M  V30 3 1 2 4
M  V30 4 1 3 5
M  V30 5 1 4 6
M  V30 6 1 5 7
M  V30 7 1 7 8
M  V30 8 1 7 9
M  V30 END BOND
M  V30 BEGIN COLLECTION
M  V30 MDLV30/STERAC1 ATOMS=(1 2)
M  V30 END COLLECTION
M  V30 END CTAB
M  END
>  <Molecule Name>
6-methyl-3-heptanol

>  <Molecule Name 2>
6-methyl-3-heptanol

>  <Database>
Essential Oil Database

>  <InChI>
InChI=1S/C8H18O/c1-4-8(9)6-5-7(2)3/h7-9H,4-6H2,1-3H3/t8-/m0/s1

>  <InChI-Key>
MNBIBGDICHMQFN-QMMMGPOBSA-N

>  <Smiles>
CCC(CCC(C)C)O

>  <Molecular Formula>
C8H18O

$$$$
eremophilane
Actelion Java MolfileCreator 2.0

  0  0  0  0  0  0              0 V3000
M  V30 BEGIN CTAB
M  V30 COUNTS 15 16 0 0 0
M  V30 BEGIN ATOM
M  V30 1 C 0.0 0.0 0.0 0 CFG=2
M  V30 2 C -0.1259 1.6116 0.0 0 CFG=2
M  V30 3 C 1.1457 -0.6798 0.0 0 CFG=1
M  V30 4 C -1.3975 -0.6798 0.0 0
M  V30 5 C -0.1259 -1.3597 0.0 0
M  V30 6 C -1.5234 2.4425 0.0 0
M  V30 7 C 1.0198 2.4425 0.0 0
M  V30 8 C 2.2915 0.1259 0.0 0
M  V30 9 C 1.0198 -2.0396 0.0 0
M  V30 10 C -2.7951 0.1259 0.0 0 CFG=2
M  V30 11 C -2.921 1.7752 0.0 0
M  V30 12 C 2.1655 1.7752 0.0 0
M  V30 13 C -4.1926 -0.5413 0.0 0
M  V30 14 C -4.3186 -1.9011 0.0 0
M  V30 15 C -5.5902 0.2644 0.0 0
M  V30 END ATOM
M  V30 BEGIN BOND
M  V30 1 1 1 2
M  V30 2 1 1 3
M  V30 3 1 1 4
M  V30 4 1 1 5 CFG=1
M  V30 5 1 2 6 CFG=3
M  V30 6 1 2 7
M  V30 7 1 3 8
M  V30 8 1 3 9 CFG=1
M  V30 9 1 4 10
M  V30 10 1 6 11
M  V30 11 1 7 12
M  V30 12 1 10 13 CFG=1
M  V30 13 1 13 14
M  V30 14 1 13 15
M  V30 15 1 8 12
M  V30 16 1 10 11
M  V30 END BOND
M  V30 BEGIN COLLECTION
M  V30 MDLV30/STERAC1 ATOMS=(4 1 2 3 10)
M  V30 END COLLECTION
M  V30 END CTAB
M  END
>  <Molecule Name>
eremophilane

>  <Molecule Name 2>
eremophilane

>  <Database>
Essential Oil Database

>  <InChI>
InChI=1S/C15H28/c1-11(2)13-8-9-14-7-5-6-12(3)15(14,4)10-13/h11-14H,5-10H2,1-4H3/t12-,13+,14+,15+/m1/s1

>  <InChI-Key>
AJWBFJHTFGRNDG-QPSCCSFWSA-N

>  <Smiles>
CC(C)[C@@H]1C[C@@](C)([C@H](C)CCC2)[C@@H]2CC1

>  <Molecular Formula>
C15H28

$$$$
isopulegone
Actelion Java MolfileCreator 2.0

  0  0  0  0  0  0              0 V3000
M  V30 BEGIN CTAB
M  V30 COUNTS 11 11 0 0 0
M  V30 BEGIN ATOM
M  V30 1 O 0.0 0.0 0.0 0
M  V30 2 C 1.1822 0.8444 0.0 0
M  V30 3 C 2.3644 0.1558 0.0 0
M  V30 4 C 1.0522 2.5073 0.0 0
M  V30 5 C 2.2344 -1.2471 0.0 0
M  V30 6 C 3.5466 1.0003 0.0 0
M  V30 7 C 2.2344 3.3647 0.0 0
M  V30 8 C 0.7924 -1.9486 0.0 0
M  V30 9 C 3.4166 -1.9486 0.0 0
M  V30 10 C 3.4166 2.6632 0.0 0
M  V30 11 C 2.1045 5.0276 0.0 0
M  V30 END ATOM
M  V30 BEGIN BOND
M  V30 1 2 1 2
M  V30 2 1 2 3
M  V30 3 1 2 4
M  V30 4 1 3 5
M  V30 5 1 3 6
M  V30 6 1 4 7
M  V30 7 2 5 8
M  V30 8 1 5 9
M  V30 9 1 6 10
M  V30 10 1 7 11
M  V30 11 1 7 10
M  V30 END BOND
M  V30 END CTAB
M  END
>  <Molecule Name>
isopulegone

>  <Molecule Name 2>
isopulegone

>  <Database>
Essential Oil Database

>  <InChI>
InChI=1S/C10H16O/c1-7(2)9-5-4-8(3)6-10(9)11/h8-9H,1,4-6H2,2-3H3

>  <InChI-Key>
RMIANEGNSBUGDJ-UHFFFAOYSA-N

>  <Smiles>
CC(CCC1C(C)=C)CC1=O

>  <Molecular Formula>
C10H16O

$$$$
piperitenone oxide
Actelion Java MolfileCreator 2.0

  0  0  0  0  0  0              0 V3000
M  V30 BEGIN CTAB
M  V30 COUNTS 12 13 0 0 0
M  V30 BEGIN ATOM
M  V30 1 O 0.0 0.0 0.0 0
M  V30 2 C -0.1318 -1.4235 0.0 0
M  V30 3 C 1.0676 -2.1353 0.0 0
M  V30 4 C -1.5949 -2.1353 0.0 0 CFG=2
M  V30 5 C 2.2671 -1.2654 0.0 0
M  V30 6 C 0.9358 -3.5589 0.0 0
M  V30 7 O -3.058 -2.8471 0.0 0
M  V30 8 C -1.7267 -3.5589 0.0 0 CFG=1
M  V30 9 C 3.4666 -1.9771 0.0 0
M  V30 10 C 2.1353 0.4218 0.0 0
M  V30 11 C -0.5272 -4.2575 0.0 0
M  V30 12 C -2.5835 -4.7584 0.0 0
M  V30 END ATOM
M  V30 BEGIN BOND
M  V30 1 2 1 2
M  V30 2 1 2 3
M  V30 3 1 2 4
M  V30 4 2 3 5
M  V30 5 1 3 6
M  V30 6 1 4 7 CFG=1
M  V30 7 1 4 8
M  V30 8 1 5 9
M  V30 9 1 5 10
M  V30 10 1 6 11
M  V30 11 1 8 12
M  V30 12 1 8 7 CFG=3
M  V30 13 1 8 11
M  V30 END BOND
M  V30 BEGIN COLLECTION
M  V30 MDLV30/STERAC1 ATOMS=(2 4 8)
M  V30 END COLLECTION
M  V30 END CTAB
M  END
>  <Molecule Name>
piperitenone oxide

>  <Molecule Name 2>
piperitenone oxide

>  <Database>
Essential Oil Database

>  <InChI>
InChI=1S/C10H14O2/c1-6(2)7-4-5-10(3)9(12-10)8(7)11/h9H,4-5H2,1-3H3/t9-,10-/m0/s1

>  <InChI-Key>
AKASWINDKIEEBO-UWVGGRQHSA-N

>  <Smiles>
C[C@@]1(CCC2=C(C)C)O[C@H]1C2=O

>  <Molecular Formula>
C10H14O2

$$$$
2,5-diethyltetrahydrofuran
Actelion Java MolfileCreator 2.0

  0  0  0  0  0  0              0 V3000
M  V30 BEGIN CTAB
M  V30 COUNTS 9 9 0 0 0
M  V30 BEGIN ATOM
M  V30 1 O 0.0 0.0 0.0 0
M  V30 2 C -0.6136 -1.2773 0.0 0
M  V30 3 C -1.3023 0.9517 0.0 0
M  V30 4 C -2.2165 -1.152 0.0 0
M  V30 5 C 0.1252 -2.3292 0.0 0
M  V30 6 C -2.6047 0.2128 0.0 0
M  V30 7 C -1.4275 2.5546 0.0 0
M  V30 8 C -0.6511 -3.5439 0.0 0
M  V30 9 C -2.8176 3.3685 0.0 0
M  V30 END ATOM
M  V30 BEGIN BOND
M  V30 1 1 1 2
M  V30 2 1 1 3
M  V30 3 1 2 4
M  V30 4 1 2 5
M  V30 5 1 3 6
M  V30 6 1 3 7
M  V30 7 1 5 8
M  V30 8 1 7 9
M  V30 9 1 4 6
M  V30 END BOND
M  V30 END CTAB
M  END
>  <Molecule Name>
2,5-diethyltetrahydrofuran

>  <Molecule Name 2>
2,5-diethyltetrahydrofuran

>  <Database>
Essential Oil Database

>  <InChI>
InChI=1S/C8H16O/c1-3-7-5-6-8(4-2)9-7/h7-8H,3-6H2,1-2H3

>  <InChI-Key>
YKWLEIXVUHRKEF-UHFFFAOYSA-N

>  <Smiles>
CCC1OC(CC)CC1

>  <Molecular Formula>
C8H16O

$$$$
3-methylcyclohexanone
Actelion Java MolfileCreator 2.0

  0  0  0  0  0  0              0 V3000
M  V30 BEGIN CTAB
M  V30 COUNTS 8 8 0 0 0
M  V30 BEGIN ATOM
M  V30 1 O 0.0 0.0 0.0 0
M  V30 2 C -0.118 -1.4759 0.0 0
M  V30 3 C 1.1571 -2.1135 0.0 0
M  V30 4 C -1.6294 -2.1135 0.0 0
M  V30 5 C 1.039 -3.5895 0.0 0 CFG=2
M  V30 6 C -1.7475 -3.5895 0.0 0
M  V30 7 C -0.4723 -4.2271 0.0 0
M  V30 8 C 2.3143 -4.2271 0.0 0
M  V30 END ATOM
M  V30 BEGIN BOND
M  V30 1 2 1 2
M  V30 2 1 2 3
M  V30 3 1 2 4
M  V30 4 1 3 5
M  V30 5 1 4 6
M  V30 6 1 5 7
M  V30 7 1 5 8 CFG=1
M  V30 8 1 6 7
M  V30 END BOND
M  V30 BEGIN COLLECTION
M  V30 MDLV30/STERAC1 ATOMS=(1 5)
M  V30 END COLLECTION
M  V30 END CTAB
M  END
>  <Molecule Name>
3-methylcyclohexanone

>  <Molecule Name 2>
3-methylcyclohexanone

>  <Database>
Essential Oil Database

>  <InChI>
InChI=1S/C7H12O/c1-6-3-2-4-7(8)5-6/h6H,2-5H2,1H3/t6-/m0/s1

>  <InChI-Key>
UJBOOUHRTQVGRU-LURJTMIESA-N

>  <Smiles>
CC(CCC1)CC1=O

>  <Molecular Formula>
C7H12O

$$$$
(z)-3-hexenyl-3-methylbutyrate
Actelion Java MolfileCreator 2.0

  0  0  0  0  0  0              0 V3000
M  V30 BEGIN CTAB
M  V30 COUNTS 13 12 0 0 0
M  V30 BEGIN ATOM
M  V30 1 O 0.0 0.0 0.0 0
M  V30 2 C -0.8079 -1.131 0.0 0
M  V30 3 O -0.1367 -2.2621 0.0 0 CHG=-1
M  V30 4 C -2.3988 -1.0067 0.0 0
M  V30 5 C -3.2192 -2.1378 0.0 0
M  V30 6 C -4.0271 -3.2689 0.0 0
M  V30 7 C -4.5988 -1.3299 0.0 0
M  V30 8 C -2.0881 -2.809 0.0 0
M  V30 9 C -5.618 -3.1446 0.0 0
M  V30 10 C -6.4384 -1.7649 0.0 0
M  V30 11 C -8.0294 -1.6406 0.0 0
M  V30 12 C -8.8497 -0.261 0.0 0
M  V30 13 C -10.4407 -0.1367 0.0 0
M  V30 END ATOM
M  V30 BEGIN BOND
M  V30 1 2 1 2
M  V30 2 1 2 3
M  V30 3 1 2 4
M  V30 4 1 4 5
M  V30 5 1 5 6
M  V30 6 1 5 7
M  V30 7 1 5 8
M  V30 8 2 6 9
M  V30 9 1 9 10
M  V30 10 1 10 11
M  V30 11 1 11 12
M  V30 12 1 12 13
M  V30 END BOND
M  V30 END CTAB
M  END
>  <Molecule Name>
(z)-3-hexenyl-3-methylbutyrate

>  <Molecule Name 2>
(z)-3-hexenyl-3-methylbutyrate

>  <Database>
Essential Oil Database

>  <InChI>
InChI=1S/C11H20O2/c1-4-5-6-7-8-11(2,3)9-10(12)13/h7-8H,4-6,9H2,1-3H3,(H,12,13)/p-1/b8-7-

>  <InChI-Key>
ATIFKDUKGHHSHI-FPLPWBNLSA-M

>  <Smiles>
CCCC/C=C\C(C)(C)CC([O-])=O

>  <Molecular Formula>
C11H19O2

$$$$
alpha-santalol
Actelion Java MolfileCreator 2.0

  0  0  0  0  0  0              0 V3000
M  V30 BEGIN CTAB
M  V30 COUNTS 16 18 0 0 0
M  V30 BEGIN ATOM
M  V30 1 O 0.0 0.0 0.0 0
M  V30 2 C -0.2992 1.5392 0.0 0
M  V30 3 C 0.6698 2.4655 0.0 0
M  V30 4 C 0.3705 4.0047 0.0 0
M  V30 5 C 1.7957 1.981 0.0 0
M  V30 6 C -1.0403 4.7743 0.0 0
M  V30 7 C -2.2945 4.019 0.0 0
M  V30 8 C -3.7054 4.7886 0.0 0 CFG=2
M  V30 9 C -5.2304 5.3302 0.0 0 CFG=2
M  V30 10 C -3.1211 6.114 0.0 0 CFG=1
M  V30 11 C -4.361 3.6199 0.0 0
M  V30 12 C -5.3729 7.1544 0.0 0
M  V30 13 C -6.1568 6.3135 0.0 0
M  V30 14 C -6.1568 4.2898 0.0 0
M  V30 15 C -3.905 7.5107 0.0 0
M  V30 16 C -4.532 6.9406 0.0 0
M  V30 END ATOM
M  V30 BEGIN BOND
M  V30 1 1 1 2
M  V30 2 1 2 3
M  V30 3 2 3 4
M  V30 4 1 3 5
M  V30 5 1 4 6
M  V30 6 1 6 7
M  V30 7 1 7 8
M  V30 8 1 8 9
M  V30 9 1 8 10
M  V30 10 1 8 11 CFG=1
M  V30 11 1 9 12
M  V30 12 1 9 13
M  V30 13 1 9 14 CFG=1
M  V30 14 1 10 15 CFG=1
M  V30 15 1 10 16
M  V30 16 1 12 13
M  V30 17 1 12 15
M  V30 18 1 13 16
M  V30 END BOND
M  V30 BEGIN COLLECTION
M  V30 MDLV30/STEABS ATOMS=(2 9 10)
M  V30 MDLV30/STERAC1 ATOMS=(1 8)
M  V30 END COLLECTION
M  V30 END CTAB
M  END
>  <Molecule Name>
alpha-santalol

>  <Molecule Name 2>
alpha-santalol

>  <Database>
Essential Oil Database

>  <InChI>
InChI=1S/C15H24O/c1-10(9-16)5-4-6-14(2)11-7-12-13(8-11)15(12,14)3/h5,11-13,16H,4,6-9H2,1-3H3/b10-5-/t11-,12?,13?,14-,15+/m0/s1

>  <InChI-Key>
PDEQKAVEYSOLJX-PRNHYTKCSA-N

>  <Smiles>
C[C@]12C(C)(CC/C=C(/C)\CO)[C@@H]3CC1C2C3

>  <Molecular Formula>
C15H24O

$$$$
lyral
Actelion Java MolfileCreator 2.0

  0  0  0  0  0  0              0 V3000
M  V30 BEGIN CTAB
M  V30 COUNTS 15 15 0 0 0
M  V30 BEGIN ATOM
M  V30 1 O 0.0 0.0 0.0 0
M  V30 2 C -1.3336 0.7809 0.0 0
M  V30 3 C -1.4538 2.3188 0.0 0 CFG=2
M  V30 4 C -0.3604 3.0998 0.0 0
M  V30 5 C -2.7874 3.0998 0.0 0
M  V30 6 C -0.4805 4.6377 0.0 0
M  V30 7 C -2.9076 4.6377 0.0 0
M  V30 8 C -1.8142 5.4187 0.0 0
M  V30 9 C -1.9344 6.9566 0.0 0
M  V30 10 C -3.268 7.7376 0.0 0
M  V30 11 C -3.3882 9.2755 0.0 0
M  V30 12 C -4.7218 10.0565 0.0 0
M  V30 13 O -4.073 11.3901 0.0 0
M  V30 14 C -6.0555 10.8374 0.0 0
M  V30 15 C -5.5028 8.9631 0.0 0
M  V30 END ATOM
M  V30 BEGIN BOND
M  V30 1 2 1 2
M  V30 2 1 3 2 CFG=1
M  V30 3 1 3 4
M  V30 4 1 3 5
M  V30 5 1 4 6
M  V30 6 1 5 7
M  V30 7 2 6 8
M  V30 8 1 8 9
M  V30 9 1 9 10
M  V30 10 1 10 11
M  V30 11 1 11 12
M  V30 12 1 12 13
M  V30 13 1 12 14
M  V30 14 1 12 15
M  V30 15 1 7 8
M  V30 END BOND
M  V30 BEGIN COLLECTION
M  V30 MDLV30/STERAC1 ATOMS=(1 3)
M  V30 END COLLECTION
M  V30 END CTAB
M  END
>  <Molecule Name>
lyral

>  <Molecule Name 2>
lyral

>  <Database>
Essential Oil Database

>  <InChI>
InChI=1S/C13H22O2/c1-13(2,15)9-3-4-11-5-7-12(10-14)8-6-11/h5,10,12,15H,3-4,6-9H2,1-2H3/t12-/m1/s1

>  <InChI-Key>
ORMHZBNNECIKOH-GFCCVEGCSA-N

>  <Smiles>
CC(C)(CCCC(CC1)=CCC1C=O)O

>  <Molecular Formula>
C13H22O2

$$$$
myrtanol
Actelion Java MolfileCreator 2.0

  0  0  0  0  0  0              0 V3000
M  V30 BEGIN CTAB
M  V30 COUNTS 11 12 0 0 0
M  V30 BEGIN ATOM
M  V30 1 O 0.0 0.0 0.0 0
M  V30 2 C -1.5466 0.1208 0.0 0
M  V30 3 C -2.3321 1.462 0.0 0
M  V30 4 C -3.8787 1.5829 0.0 0
M  V30 5 C -1.6796 2.8033 0.0 0
M  V30 6 C -4.6642 2.9241 0.0 0
M  V30 7 C -3.6733 2.9241 0.0 0
M  V30 8 C -2.465 4.1446 0.0 0
M  V30 9 C -4.0117 4.2654 0.0 0
M  V30 10 C -5.8483 3.9271 0.0 0
M  V30 11 C -5.8483 2.1629 0.0 0
M  V30 END ATOM
M  V30 BEGIN BOND
M  V30 1 1 1 2
M  V30 2 1 2 3
M  V30 3 1 3 4
M  V30 4 1 3 5
M  V30 5 1 4 6
M  V30 6 1 4 7
M  V30 7 1 5 8
M  V30 8 1 6 9
M  V30 9 1 6 10
M  V30 10 1 6 11
M  V30 11 1 7 9
M  V30 12 1 8 9
M  V30 END BOND
M  V30 END CTAB
M  END
>  <Molecule Name>
myrtanol

>  <Molecule Name 2>
myrtanol

>  <Database>
Essential Oil Database

>  <InChI>
InChI=1S/C10H18O/c1-10(2)8-4-3-7(6-11)9(10)5-8/h7-9,11H,3-6H2,1-2H3

>  <InChI-Key>
LDWAIHWGMRVEFR-UHFFFAOYSA-N

>  <Smiles>
CC1(C)C2C(CO)CCC1C2

>  <Molecular Formula>
C10H18O

$$$$
2-pentadecanol
Actelion Java MolfileCreator 2.0

  0  0  0  0  0  0              0 V3000
M  V30 BEGIN CTAB
M  V30 COUNTS 16 15 0 0 0
M  V30 BEGIN ATOM
M  V30 1 O 0.0 0.0 0.0 0
M  V30 2 C -0.1343 1.7196 0.0 0 CFG=2
M  V30 3 C 1.0882 2.5929 0.0 0
M  V30 4 C -1.6256 2.5929 0.0 0
M  V30 5 C 2.3108 1.8674 0.0 0
M  V30 6 C 3.5334 2.7407 0.0 0
M  V30 7 C 4.7559 2.0152 0.0 0
M  V30 8 C 5.9785 2.8885 0.0 0
M  V30 9 C 7.2011 2.163 0.0 0
M  V30 10 C 8.4237 3.0363 0.0 0
M  V30 11 C 9.6463 2.3108 0.0 0
M  V30 12 C 10.8689 3.184 0.0 0
M  V30 13 C 12.0915 2.4586 0.0 0
M  V30 14 C 13.3141 3.3318 0.0 0
M  V30 15 C 14.5366 2.6063 0.0 0
M  V30 16 C 15.7592 3.4796 0.0 0
M  V30 END ATOM
M  V30 BEGIN BOND
M  V30 1 1 2 1 CFG=1
M  V30 2 1 2 3
M  V30 3 1 2 4
M  V30 4 1 3 5
M  V30 5 1 5 6
M  V30 6 1 6 7
M  V30 7 1 7 8
M  V30 8 1 8 9
M  V30 9 1 9 10
M  V30 10 1 10 11
M  V30 11 1 11 12
M  V30 12 1 12 13
M  V30 13 1 13 14
M  V30 14 1 14 15
M  V30 15 1 15 16
M  V30 END BOND
M  V30 BEGIN COLLECTION
M  V30 MDLV30/STERAC1 ATOMS=(1 2)
M  V30 END COLLECTION
M  V30 END CTAB
M  END
>  <Molecule Name>
2-pentadecanol

>  <Molecule Name 2>
2-pentadecanol

>  <Database>
Essential Oil Database

>  <InChI>
InChI=1S/C15H32O/c1-3-4-5-6-7-8-9-10-11-12-13-14-15(2)16/h15-16H,3-14H2,1-2H3/t15-/m0/s1

>  <InChI-Key>
ALVGHPMGQNBJRC-HNNXBMFYSA-N

>  <Smiles>
CCCCCCCCCCCCCC(C)O

>  <Molecular Formula>
C15H32O

$$$$
cyclopentadecanolide
Actelion Java MolfileCreator 2.0

  0  0  0  0  0  0              0 V3000
M  V30 BEGIN CTAB
M  V30 COUNTS 17 17 0 0 0
M  V30 BEGIN ATOM
M  V30 1 O 0.0 0.0 0.0 0
M  V30 2 C 0.3402 -1.4 0.0 0
M  V30 3 O -1.3346 -0.8505 0.0 0
M  V30 4 C 1.2822 -0.157 0.0 0
M  V30 5 C -2.5384 -1.8318 0.0 0
M  V30 6 C 2.6954 -0.4448 0.0 0
M  V30 7 C -2.1982 -3.2319 0.0 0
M  V30 8 C 3.0356 -1.8449 0.0 0
M  V30 9 C -3.402 -4.2132 0.0 0
M  V30 10 C 1.8318 -2.8262 0.0 0
M  V30 11 C -3.0618 -5.6133 0.0 0
M  V30 12 C 2.172 -4.2263 0.0 0
M  V30 13 C -1.6486 -5.9011 0.0 0
M  V30 14 C 0.9682 -5.2076 0.0 0
M  V30 15 C -1.3084 -7.3012 0.0 0
M  V30 16 C 1.3084 -6.6077 0.0 0
M  V30 17 C 0.1046 -7.589 0.0 0
M  V30 END ATOM
M  V30 BEGIN BOND
M  V30 1 2 1 2
M  V30 2 1 2 3
M  V30 3 1 2 4
M  V30 4 1 3 5
M  V30 5 1 4 6
M  V30 6 1 5 7
M  V30 7 1 6 8
M  V30 8 1 7 9
M  V30 9 1 8 10
M  V30 10 1 9 11
M  V30 11 1 10 12
M  V30 12 1 11 13
M  V30 13 1 12 14
M  V30 14 1 13 15
M  V30 15 1 14 16
M  V30 16 1 15 17
M  V30 17 1 16 17
M  V30 END BOND
M  V30 END CTAB
M  END
>  <Molecule Name>
cyclopentadecanolide

>  <Molecule Name 2>
cyclopentadecanolide

>  <Database>
Essential Oil Database

>  <InChI>
InChI=1S/C15H28O2/c16-15-13-11-9-7-5-3-1-2-4-6-8-10-12-14-17-15/h1-14H2

>  <InChI-Key>
FKUPPRZPSYCDRS-UHFFFAOYSA-N

>  <Smiles>
O=C1OCCCCCCCCCCCCCC1

>  <Molecular Formula>
C15H28O2

$$$$
4-hexenylacetate
Actelion Java MolfileCreator 2.0

  0  0  0  0  0  0              0 V3000
M  V30 BEGIN CTAB
M  V30 COUNTS 10 9 0 0 0
M  V30 BEGIN ATOM
M  V30 1 O 0.0 0.0 0.0 0
M  V30 2 C -0.1321 1.6911 0.0 0
M  V30 3 O -1.5986 2.5499 0.0 0 CHG=-1
M  V30 4 C 1.0701 2.5499 0.0 0
M  V30 5 C 2.2724 1.8364 0.0 0
M  V30 6 C 3.4747 2.6952 0.0 0
M  V30 7 C 4.677 1.9818 0.0 0
M  V30 8 C 5.8793 2.8406 0.0 0
M  V30 9 C 7.0816 2.1271 0.0 0
M  V30 10 C 8.2839 2.9859 0.0 0
M  V30 END ATOM
M  V30 BEGIN BOND
M  V30 1 2 1 2
M  V30 2 1 2 3
M  V30 3 1 2 4
M  V30 4 1 4 5
M  V30 5 1 5 6
M  V30 6 1 6 7
M  V30 7 1 7 8
M  V30 8 2 8 9
M  V30 9 1 9 10
M  V30 END BOND
M  V30 END CTAB
M  END
>  <Molecule Name>
4-hexenylacetate

>  <Molecule Name 2>
4-hexenylacetate

>  <Database>
Essential Oil Database

>  <InChI>
InChI=1S/C8H14O2/c1-2-3-4-5-6-7-8(9)10/h2-3H,4-7H2,1H3,(H,9,10)/p-1/b3-2+

>  <InChI-Key>
OTJVLQGVNKNLCB-NSCUHMNNSA-M

>  <Smiles>
C/C=C/CCCCC([O-])=O

>  <Molecular Formula>
C8H13O2

$$$$
ylangene
Actelion Java MolfileCreator 2.0

  0  0  0  0  0  0              0 V3000
M  V30 BEGIN CTAB
M  V30 COUNTS 15 17 0 0 0
M  V30 BEGIN ATOM
M  V30 1 C 0.0 0.0 0.0 0
M  V30 2 C 0.9719 -0.92 0.0 0
M  V30 3 C -1.3088 -1.0107 0.0 0
M  V30 4 C -0.1295 1.5939 0.0 0
M  V30 5 C 0.2462 -2.1122 0.0 0
M  V30 6 C -2.0085 -0.1555 0.0 0 CFG=2
M  V30 7 C -2.4103 -2.177 0.0 0
M  V30 8 C -1.4124 -1.8142 0.0 0
M  V30 9 C -3.5636 0.5701 0.0 0
M  V30 10 C -1.231 1.1144 0.0 0
M  V30 11 C -3.9783 -1.9567 0.0 0 CFG=1
M  V30 12 C -4.6651 -0.3887 0.0 0
M  V30 13 C -4.9372 -2.9804 0.0 0
M  V30 14 C -4.4318 -4.1856 0.0 0
M  V30 15 C -6.5311 -2.6694 0.0 0
M  V30 END ATOM
M  V30 BEGIN BOND
M  V30 1 2 1 2
M  V30 2 1 1 3
M  V30 3 1 1 4
M  V30 4 1 2 5
M  V30 5 1 3 6
M  V30 6 1 3 7
M  V30 7 1 5 8
M  V30 8 1 6 9
M  V30 9 1 6 10 CFG=1
M  V30 10 1 7 11
M  V30 11 1 9 12
M  V30 12 1 11 13 CFG=3
M  V30 13 1 13 14
M  V30 14 1 13 15
M  V30 15 1 6 8
M  V30 16 1 7 8
M  V30 17 1 11 12
M  V30 END BOND
M  V30 BEGIN COLLECTION
M  V30 MDLV30/STERAC1 ATOMS=(2 6 11)
M  V30 END COLLECTION
M  V30 END CTAB
M  END
>  <Molecule Name>
ylangene

>  <Molecule Name 2>
ylangene

>  <Database>
Essential Oil Database

>  <InChI>
InChI=1S/C15H24/c1-9(2)11-7-8-15(4)12-6-5-10(3)14(15)13(11)12/h5,9,11-14H,6-8H2,1-4H3/t11-,12?,13?,14?,15-/m0/s1

>  <InChI-Key>
VLXDPFLIRFYIME-CQYKSGMSSA-N

>  <Smiles>
CC(C)[C@H]1C2C3C(C)=CCC2[C@]3(C)CC1

>  <Molecular Formula>
C15H24

$$$$
sabinol
Actelion Java MolfileCreator 2.0

  0  0  0  0  0  0              0 V3000
M  V30 BEGIN CTAB
M  V30 COUNTS 11 12 0 0 0
M  V30 BEGIN ATOM
M  V30 1 O 0.0 0.0 0.0 0
M  V30 2 C -1.5831 0.1236 0.0 0 CFG=2
M  V30 3 C -2.5231 1.4099 0.0 0
M  V30 4 C -2.5231 -0.9152 0.0 0
M  V30 5 C -2.1644 2.9189 0.0 0
M  V30 6 C -4.032 1.0513 0.0 0
M  V30 7 C -4.032 -0.3092 0.0 0
M  V30 8 C -5.4049 0.3957 0.0 0
M  V30 9 C -4.7988 -1.5089 0.0 0
M  V30 10 C -6.3696 -1.546 0.0 0
M  V30 11 C -4.0691 -2.5478 0.0 0
M  V30 END ATOM
M  V30 BEGIN BOND
M  V30 1 1 2 1 CFG=1
M  V30 2 1 2 3
M  V30 3 1 2 4
M  V30 4 2 3 5
M  V30 5 1 3 6
M  V30 6 1 4 7
M  V30 7 1 6 8
M  V30 8 1 7 9
M  V30 9 1 9 10
M  V30 10 1 9 11
M  V30 11 1 6 7
M  V30 12 1 7 8
M  V30 END BOND
M  V30 BEGIN COLLECTION
M  V30 MDLV30/STERAC1 ATOMS=(1 2)
M  V30 END COLLECTION
M  V30 END CTAB
M  END
>  <Molecule Name>
sabinol

>  <Molecule Name 2>
sabinol

>  <Database>
Essential Oil Database

>  <InChI>
InChI=1S/C10H16O/c1-6(2)10-4-8(10)7(3)9(11)5-10/h6,8-9,11H,3-5H2,1-2H3/t8?,9-,10?/m0/s1

>  <InChI-Key>
MDFQXBNVOAKNAY-KYHHOPLUSA-N

>  <Smiles>
CC(C)C(C1)(CC2O)C1C2=C

>  <Molecular Formula>
C10H16O

$$$$
cis-beta-farnesene
Actelion Java MolfileCreator 2.0

  0  0  0  0  0  0              0 V3000
M  V30 BEGIN CTAB
M  V30 COUNTS 15 14 0 0 0
M  V30 BEGIN ATOM
M  V30 1 C 0.0 0.0 0.0 0
M  V30 2 C 1.1233 -0.6542 0.0 0
M  V30 3 C -0.1234 1.58 0.0 0
M  V30 4 C -1.3702 -0.6542 0.0 0
M  V30 5 C 2.2467 0.1357 0.0 0
M  V30 6 C -2.7404 0.1357 0.0 0
M  V30 7 C -4.1107 -0.5184 0.0 0
M  V30 8 C -5.4809 0.2715 0.0 0
M  V30 9 C -5.6044 1.8516 0.0 0
M  V30 10 C -6.8512 -0.3826 0.0 0
M  V30 11 C -6.9746 2.654 0.0 0
M  V30 12 C -7.098 4.2341 0.0 0
M  V30 13 C -5.9747 5.0365 0.0 0
M  V30 14 C -6.0981 6.6166 0.0 0
M  V30 15 C -4.8513 4.3822 0.0 0
M  V30 END ATOM
M  V30 BEGIN BOND
M  V30 1 1 1 2
M  V30 2 2 1 3
M  V30 3 1 1 4
M  V30 4 2 2 5
M  V30 5 1 4 6
M  V30 6 1 6 7
M  V30 7 2 7 8
M  V30 8 1 8 9
M  V30 9 1 8 10
M  V30 10 1 9 11
M  V30 11 1 11 12
M  V30 12 2 12 13
M  V30 13 1 13 14
M  V30 14 1 13 15
M  V30 END BOND
M  V30 END CTAB
M  END
>  <Molecule Name>
cis-beta-farnesene

>  <Molecule Name 2>
cis-beta-farnesene

>  <Database>
Essential Oil Database

>  <InChI>
InChI=1S/C15H24/c1-6-14(4)10-8-12-15(5)11-7-9-13(2)3/h6,9,12H,1,4,7-8,10-11H2,2-3,5H3/b15-12-

>  <InChI-Key>
JSNRRGGBADWTMC-QINSGFPZSA-N

>  <Smiles>
CC(C)=CCC/C(\C)=C\CCC(C=C)=C

>  <Molecular Formula>
C15H24

$$$$
2,6-dimethoxy-p-cymene
Actelion Java MolfileCreator 2.0

  0  0  0  0  0  0              0 V3000
M  V30 BEGIN CTAB
M  V30 COUNTS 14 14 0 0 0
M  V30 BEGIN ATOM
M  V30 1 O 0.0 0.0 0.0 0
M  V30 2 C -1.3957 -0.6664 0.0 0
M  V30 3 C 1.1442 -0.6664 0.0 0
M  V30 4 C -2.7914 0.1383 0.0 0
M  V30 5 C -1.5214 -2.0243 0.0 0
M  V30 6 C -4.1871 -0.5281 0.0 0
M  V30 7 C -2.9171 1.7477 0.0 0
M  V30 8 C -2.9171 -2.6908 0.0 0
M  V30 9 O -5.5828 0.2766 0.0 0
M  V30 10 C -4.3128 -1.886 0.0 0
M  V30 11 C -3.0428 -4.0487 0.0 0
M  V30 12 C -5.7085 1.886 0.0 0
M  V30 13 C -1.8986 -4.7277 0.0 0
M  V30 14 C -4.4385 -4.7277 0.0 0
M  V30 END ATOM
M  V30 BEGIN BOND
M  V30 1 1 1 2
M  V30 2 1 1 3
M  V30 3 2 2 4
M  V30 4 1 2 5
M  V30 5 1 4 6
M  V30 6 1 4 7
M  V30 7 2 5 8
M  V30 8 1 6 9
M  V30 9 2 6 10
M  V30 10 1 8 11
M  V30 11 1 9 12
M  V30 12 1 11 13
M  V30 13 1 11 14
M  V30 14 1 8 10
M  V30 END BOND
M  V30 END CTAB
M  END
>  <Molecule Name>
2,6-dimethoxy-p-cymene

>  <Molecule Name 2>
2,6-dimethoxy-p-cymene

>  <Database>
Essential Oil Database

>  <InChI>
InChI=1S/C12H18O2/c1-8(2)10-6-11(13-4)9(3)12(7-10)14-5/h6-8H,1-5H3

>  <InChI-Key>
RWENJYLCELUBAE-UHFFFAOYSA-N

>  <Smiles>
CC(C)c1cc(OC)c(C)c(OC)c1

>  <Molecular Formula>
C12H18O2

$$$$
cis-valerenylacetate
Actelion Java MolfileCreator 2.0

  0  0  0  0  0  0              0 V3000
M  V30 BEGIN CTAB
M  V30 COUNTS 9 8 0 0 0
M  V30 BEGIN ATOM
M  V30 1 O 0.0 0.0 0.0 0
M  V30 2 C -0.805 -1.1446 0.0 0
M  V30 3 O -0.1383 -2.2892 0.0 0 CHG=-1
M  V30 4 C -2.415 -1.0188 0.0 0
M  V30 5 C -3.2326 0.3773 0.0 0
M  V30 6 C -4.8426 0.5031 0.0 0
M  V30 7 C -5.6602 -0.6414 0.0 0
M  V30 8 C -7.2702 -0.5157 0.0 0
M  V30 9 C -8.0878 -1.6603 0.0 0
M  V30 END ATOM
M  V30 BEGIN BOND
M  V30 1 2 1 2
M  V30 2 1 2 3
M  V30 3 1 2 4
M  V30 4 1 4 5
M  V30 5 2 5 6
M  V30 6 1 6 7
M  V30 7 1 7 8
M  V30 8 1 8 9
M  V30 END BOND
M  V30 END CTAB
M  END
>  <Molecule Name>
cis-valerenylacetate

>  <Molecule Name 2>
cis-valerenylacetate

>  <Database>
Essential Oil Database

>  <InChI>
InChI=1S/C7H12O2/c1-2-3-4-5-6-7(8)9/h4-5H,2-3,6H2,1H3,(H,8,9)/p-1/b5-4-

>  <InChI-Key>
BCYXFRMDZWKZSF-PLNGDYQASA-M

>  <Smiles>
CCC/C=C\CC([O-])=O

>  <Molecular Formula>
C7H11O2

$$$$
isobutylvalerate
Actelion Java MolfileCreator 2.0

  0  0  0  0  0  0              0 V3000
M  V30 BEGIN CTAB
M  V30 COUNTS 11 10 0 0 0
M  V30 BEGIN ATOM
M  V30 1 O 0.0 0.0 0.0 0
M  V30 2 C -0.1324 1.6953 0.0 0
M  V30 3 O -1.6026 2.5695 0.0 0 CHG=-1
M  V30 4 C 1.0728 2.5695 0.0 0
M  V30 5 C 2.2781 1.8542 0.0 0
M  V30 6 C 3.4834 2.7284 0.0 0
M  V30 7 C 4.6886 2.0132 0.0 0
M  V30 8 C 5.8939 2.8873 0.0 0
M  V30 9 C 7.0992 2.1721 0.0 0
M  V30 10 C 8.3045 3.033 0.0 0
M  V30 11 C 6.9668 0.7417 0.0 0
M  V30 END ATOM
M  V30 BEGIN BOND
M  V30 1 2 1 2
M  V30 2 1 2 3
M  V30 3 1 2 4
M  V30 4 1 4 5
M  V30 5 1 5 6
M  V30 6 1 6 7
M  V30 7 1 7 8
M  V30 8 1 8 9
M  V30 9 1 9 10
M  V30 10 1 9 11
M  V30 END BOND
M  V30 END CTAB
M  END
>  <Molecule Name>
isobutylvalerate

>  <Molecule Name 2>
isobutylvalerate

>  <Database>
Essential Oil Database

>  <InChI>
InChI=1S/C9H18O2/c1-8(2)6-4-3-5-7-9(10)11/h8H,3-7H2,1-2H3,(H,10,11)/p-1

>  <InChI-Key>
XZOYHFBNQHPJRQ-UHFFFAOYSA-M

>  <Smiles>
CC(C)CCCCCC([O-])=O

>  <Molecular Formula>
C9H17O2

$$$$
trans-valerenylacetate
Actelion Java MolfileCreator 2.0

  0  0  0  0  0  0              0 V3000
M  V30 BEGIN CTAB
M  V30 COUNTS 9 8 0 0 0
M  V30 BEGIN ATOM
M  V30 1 O 0.0 0.0 0.0 0
M  V30 2 C -0.7902 1.3706 0.0 0
M  V30 3 O -0.1358 2.7413 0.0 0 CHG=-1
M  V30 4 C -2.3708 1.4941 0.0 0
M  V30 5 C -3.1735 0.3704 0.0 0
M  V30 6 C -4.754 0.4939 0.0 0
M  V30 7 C -5.5567 -0.6297 0.0 0
M  V30 8 C -7.1373 -0.5062 0.0 0
M  V30 9 C -7.9399 -1.6299 0.0 0
M  V30 END ATOM
M  V30 BEGIN BOND
M  V30 1 2 1 2
M  V30 2 1 2 3
M  V30 3 1 2 4
M  V30 4 1 4 5
M  V30 5 2 5 6
M  V30 6 1 6 7
M  V30 7 1 7 8
M  V30 8 1 8 9
M  V30 END BOND
M  V30 END CTAB
M  END
>  <Molecule Name>
trans-valerenylacetate

>  <Molecule Name 2>
trans-valerenylacetate

>  <Database>
Essential Oil Database

>  <InChI>
InChI=1S/C7H12O2/c1-2-3-4-5-6-7(8)9/h4-5H,2-3,6H2,1H3,(H,8,9)/p-1/b5-4+

>  <InChI-Key>
BCYXFRMDZWKZSF-SNAWJCMRSA-M

>  <Smiles>
CCC/C=C/CC([O-])=O

>  <Molecular Formula>
C7H11O2

$$$$
valerenal
Actelion Java MolfileCreator 2.0

  0  0  0  0  0  0              0 V3000
M  V30 BEGIN CTAB
M  V30 COUNTS 16 17 0 0 0
M  V30 BEGIN ATOM
M  V30 1 O 0.0 0.0 0.0 0
M  V30 2 C -1.34 0.7846 0.0 0
M  V30 3 C -1.4607 2.3299 0.0 0
M  V30 4 C -2.8007 3.1146 0.0 0
M  V30 5 C -0.3621 3.1146 0.0 0
M  V30 6 C -2.9214 4.6598 0.0 0 CFG=1
M  V30 7 C -4.2614 5.4445 0.0 0
M  V30 8 C -1.8228 5.4445 0.0 0
M  V30 9 C -5.7342 5.0944 0.0 0
M  V30 10 C -4.3821 6.9897 0.0 0 CFG=1
M  V30 11 C -1.9436 6.9897 0.0 0
M  V30 12 C -6.6517 6.3499 0.0 0
M  V30 13 C -6.3258 3.863 0.0 0
M  V30 14 C -3.2836 7.7744 0.0 0 CFG=1
M  V30 15 C -5.8549 7.5813 0.0 0
M  V30 16 C -3.4043 9.3197 0.0 0
M  V30 END ATOM
M  V30 BEGIN BOND
M  V30 1 2 1 2
M  V30 2 1 2 3
M  V30 3 2 3 4
M  V30 4 1 3 5
M  V30 5 1 6 4 CFG=1
M  V30 6 1 6 7
M  V30 7 1 6 8
M  V30 8 2 7 9
M  V30 9 1 7 10
M  V30 10 1 8 11
M  V30 11 1 9 12
M  V30 12 1 9 13
M  V30 13 1 10 14
M  V30 14 1 10 15 CFG=3
M  V30 15 1 14 16 CFG=3
M  V30 16 1 11 14
M  V30 17 1 12 15
M  V30 END BOND
M  V30 BEGIN COLLECTION
M  V30 MDLV30/STERAC1 ATOMS=(3 6 10 14)
M  V30 END COLLECTION
M  V30 END CTAB
M  END
>  <Molecule Name>
valerenal

>  <Molecule Name 2>
valerenal

>  <Database>
Essential Oil Database

>  <InChI>
InChI=1S/C15H22O/c1-10(9-16)8-13-6-4-11(2)14-7-5-12(3)15(13)14/h8-9,11,13-14H,4-7H2,1-3H3/b10-8+/t11-,13+,14-/m1/s1

>  <InChI-Key>
RJZWGDPBGWGJNU-MTXIQXFFSA-N

>  <Smiles>
C[C@H](CC[C@H]1/C=C(\C)/C=O)[C@@H]2C1=C(C)CC2

>  <Molecular Formula>
C15H22O

$$$$
valerenol
Actelion Java MolfileCreator 2.0

  0  0  0  0  0  0              0 V3000
M  V30 BEGIN CTAB
M  V30 COUNTS 6 5 0 0 0
M  V30 BEGIN ATOM
M  V30 1 O 0.0 0.0 0.0 0
M  V30 2 C -0.8112 -1.1534 0.0 0
M  V30 3 C -2.4336 -1.0267 0.0 0
M  V30 4 C -3.2576 -2.1801 0.0 0
M  V30 5 C -4.88 -2.0534 0.0 0
M  V30 6 C -5.7039 -3.2069 0.0 0
M  V30 END ATOM
M  V30 BEGIN BOND
M  V30 1 1 1 2
M  V30 2 2 2 3
M  V30 3 1 3 4
M  V30 4 1 4 5
M  V30 5 1 5 6
M  V30 END BOND
M  V30 END CTAB
M  END
>  <Molecule Name>
valerenol

>  <Molecule Name 2>
valerenol

>  <Database>
Essential Oil Database

>  <InChI>
InChI=1S/C5H10O/c1-2-3-4-5-6/h4-6H,2-3H2,1H3/b5-4+

>  <InChI-Key>
LHTVMBMETNGEAN-SNAWJCMRSA-N

>  <Smiles>
CCC/C=C/O

>  <Molecular Formula>
C5H10O

$$$$
valerenylisovalerate
Actelion Java MolfileCreator 2.0

  0  0  0  0  0  0              0 V3000
M  V30 BEGIN CTAB
M  V30 COUNTS 12 11 0 0 0
M  V30 BEGIN ATOM
M  V30 1 O 0.0 0.0 0.0 0
M  V30 2 C -0.1304 -1.4085 0.0 0
M  V30 3 O 1.0563 -2.0997 0.0 0
M  V30 4 C -1.578 -2.0997 0.0 0
M  V30 5 C 2.2431 -1.2389 0.0 0
M  V30 6 C -3.0256 -1.2389 0.0 0
M  V30 7 C 3.4299 -1.9301 0.0 0
M  V30 8 C -4.4733 -1.9301 0.0 0
M  V30 9 C -3.156 0.4303 0.0 0
M  V30 10 C 4.6167 -1.0694 0.0 0
M  V30 11 C 5.8035 -1.7606 0.0 0
M  V30 12 C 6.9903 -0.8998 0.0 0
M  V30 END ATOM
M  V30 BEGIN BOND
M  V30 1 2 1 2
M  V30 2 1 2 3
M  V30 3 1 2 4
M  V30 4 1 3 5
M  V30 5 1 4 6
M  V30 6 2 5 7
M  V30 7 1 6 8
M  V30 8 1 6 9
M  V30 9 1 7 10
M  V30 10 1 10 11
M  V30 11 1 11 12
M  V30 END BOND
M  V30 END CTAB
M  END
>  <Molecule Name>
valerenylisovalerate

>  <Molecule Name 2>
valerenylisovalerate

>  <Database>
Essential Oil Database

>  <InChI>
InChI=1S/C10H18O2/c1-4-5-6-7-12-10(11)8-9(2)3/h6-7,9H,4-5,8H2,1-3H3/b7-6+

>  <InChI-Key>
MWKBGVQYQKIPBO-VOTSOKGWSA-N

>  <Smiles>
CCC/C=C/OC(CC(C)C)=O

>  <Molecular Formula>
C10H18O2

$$$$
3-methylvaleric acid
Actelion Java MolfileCreator 2.0

  0  0  0  0  0  0              0 V3000
M  V30 BEGIN CTAB
M  V30 COUNTS 8 7 0 0 0
M  V30 BEGIN ATOM
M  V30 1 O 0.0 0.0 0.0 0
M  V30 2 C -0.1232 1.5775 0.0 0
M  V30 3 O 0.9982 2.3786 0.0 0
M  V30 4 C -1.4912 2.3786 0.0 0
M  V30 5 C -2.8593 1.7254 0.0 0 CFG=2
M  V30 6 C -4.2273 2.5265 0.0 0
M  V30 7 C -2.9825 0.3943 0.0 0
M  V30 8 C -5.5953 1.8733 0.0 0
M  V30 END ATOM
M  V30 BEGIN BOND
M  V30 1 2 1 2
M  V30 2 1 2 3
M  V30 3 1 2 4
M  V30 4 1 4 5
M  V30 5 1 5 6
M  V30 6 1 5 7 CFG=1
M  V30 7 1 6 8
M  V30 END BOND
M  V30 BEGIN COLLECTION
M  V30 MDLV30/STERAC1 ATOMS=(1 5)
M  V30 END COLLECTION
M  V30 END CTAB
M  END
>  <Molecule Name>
3-methylvaleric acid

>  <Molecule Name 2>
3-methylvaleric acid

>  <Database>
Essential Oil Database

>  <InChI>
InChI=1S/C6H12O2/c1-3-5(2)4-6(7)8/h5H,3-4H2,1-2H3,(H,7,8)/t5-/m0/s1

>  <InChI-Key>
IGIDLTISMCAULB-YFKPBYRVSA-N

>  <Smiles>
CCC(C)CC(O)=O

>  <Molecular Formula>
C6H12O2

$$$$
bornyl isovalerate
Actelion Java MolfileCreator 2.0

  0  0  0  0  0  0              0 V3000
M  V30 BEGIN CTAB
M  V30 COUNTS 17 18 0 0 0
M  V30 BEGIN ATOM
M  V30 1 O 0.0 0.0 0.0 0
M  V30 2 C 0.1698 -1.3104 0.0 0
M  V30 3 O 1.5531 -1.6623 0.0 0
M  V30 4 C -1.3832 -1.6623 0.0 0
M  V30 5 C 3.0213 -1.3104 0.0 0 CFG=2
M  V30 6 C -2.6209 -0.5096 0.0 0
M  V30 7 C 2.9485 0.1456 0.0 0
M  V30 8 C 4.0527 -2.1355 0.0 0
M  V30 9 C -4.1376 -0.8008 0.0 0
M  V30 10 C -2.4389 1.0435 0.0 0
M  V30 11 C 3.7614 -0.9464 0.0 0
M  V30 12 C 4.1983 0.7765 0.0 0
M  V30 13 C 1.8564 1.4681 0.0 0
M  V30 14 C 5.1447 -1.6259 0.0 0
M  V30 15 C 2.3539 -2.002 0.0 0
M  V30 16 C 2.9727 -2.4389 0.0 0
M  V30 17 C 5.2296 -0.0485 0.0 0
M  V30 END ATOM
M  V30 BEGIN BOND
M  V30 1 2 1 2
M  V30 2 1 2 3
M  V30 3 1 2 4
M  V30 4 1 5 3 CFG=3
M  V30 5 1 4 6
M  V30 6 1 5 7
M  V30 7 1 5 8
M  V30 8 1 6 9
M  V30 9 1 6 10
M  V30 10 1 7 11
M  V30 11 1 7 12
M  V30 12 1 7 13
M  V30 13 1 8 14
M  V30 14 1 11 15
M  V30 15 1 11 16
M  V30 16 1 12 17
M  V30 17 1 11 14
M  V30 18 1 14 17
M  V30 END BOND
M  V30 BEGIN COLLECTION
M  V30 MDLV30/STERAC1 ATOMS=(1 5)
M  V30 END COLLECTION
M  V30 END CTAB
M  END
>  <Molecule Name>
bornyl isovalerate

>  <Molecule Name 2>
bornyl isovalerate

>  <Database>
Essential Oil Database

>  <InChI>
InChI=1S/C15H26O2/c1-10(2)8-13(16)17-12-9-11-6-7-15(12,5)14(11,3)4/h10-12H,6-9H2,1-5H3/t11?,12-,15?/m0/s1

>  <InChI-Key>
MPYYVGIJHREDBO-AVERBVTBSA-N

>  <Smiles>
CC(C)CC(OC1C(C)(CC2)C(C)(C)C2C1)=O

>  <Molecular Formula>
C15H26O2

$$$$
geranyl valerate
Actelion Java MolfileCreator 2.0

  0  0  0  0  0  0              0 V3000
M  V30 BEGIN CTAB
M  V30 COUNTS 17 16 0 0 0
M  V30 BEGIN ATOM
M  V30 1 O 0.0 0.0 0.0 0
M  V30 2 C -0.1307 1.6739 0.0 0
M  V30 3 O 1.0592 2.537 0.0 0
M  V30 4 C -1.5823 2.537 0.0 0
M  V30 5 C 2.2493 1.8308 0.0 0
M  V30 6 C -3.0339 1.8308 0.0 0
M  V30 7 C 3.4393 2.6939 0.0 0
M  V30 8 C -4.4855 2.6939 0.0 0
M  V30 9 C 4.6294 1.9877 0.0 0
M  V30 10 C -5.9371 1.9877 0.0 0
M  V30 11 C 5.8194 2.8378 0.0 0
M  V30 12 C 4.4986 0.5754 0.0 0
M  V30 13 C 7.0095 2.1316 0.0 0
M  V30 14 C 8.1995 2.9947 0.0 0
M  V30 15 C 9.3896 2.2885 0.0 0
M  V30 16 C 10.5796 3.1516 0.0 0
M  V30 17 C 9.2588 0.8761 0.0 0
M  V30 END ATOM
M  V30 BEGIN BOND
M  V30 1 2 1 2
M  V30 2 1 2 3
M  V30 3 1 2 4
M  V30 4 1 3 5
M  V30 5 1 4 6
M  V30 6 1 5 7
M  V30 7 1 6 8
M  V30 8 2 7 9
M  V30 9 1 8 10
M  V30 10 1 9 11
M  V30 11 1 9 12
M  V30 12 1 11 13
M  V30 13 1 13 14
M  V30 14 2 14 15
M  V30 15 1 15 16
M  V30 16 1 15 17
M  V30 END BOND
M  V30 END CTAB
M  END
>  <Molecule Name>
geranyl valerate

>  <Molecule Name 2>
geranyl valerate

>  <Database>
Essential Oil Database

>  <InChI>
InChI=1S/C15H26O2/c1-5-6-10-15(16)17-12-11-14(4)9-7-8-13(2)3/h8,11H,5-7,9-10,12H2,1-4H3/b14-11+

>  <InChI-Key>
CVSWGLSBJFKWMW-SDNWHVSQSA-N

>  <Smiles>
CCCCC(OC/C=C(\C)/CCC=C(C)C)=O

>  <Molecular Formula>
C15H26O2

$$$$
germacrene
Actelion Java MolfileCreator 2.0

  0  0  0  0  0  0              0 V3000
M  V30 BEGIN CTAB
M  V30 COUNTS 15 15 0 0 0
M  V30 BEGIN ATOM
M  V30 1 C 0.0 0.0 0.0 0
M  V30 2 C 0.9191 1.1274 0.0 0
M  V30 3 C 0.2573 -1.3235 0.0 0
M  V30 4 C -1.5563 0.5637 0.0 0
M  V30 5 C 0.4166 2.6961 0.0 0
M  V30 6 C 1.5686 -1.6421 0.0 0
M  V30 7 C 1.3358 3.8235 0.0 0 CFG=1
M  V30 8 C 2.4877 -0.5147 0.0 0
M  V30 9 C 0.8333 5.3922 0.0 0
M  V30 10 C 2.6471 3.5049 0.0 0
M  V30 11 C 1.9853 1.0539 0.0 0
M  V30 12 C -0.723 5.9559 0.0 0
M  V30 13 C 1.7524 6.5197 0.0 0
M  V30 14 C 2.9044 2.1814 0.0 0
M  V30 15 C 0.4656 0.625 0.0 0
M  V30 END ATOM
M  V30 BEGIN BOND
M  V30 1 2 1 2
M  V30 2 1 1 3
M  V30 3 1 1 4
M  V30 4 1 2 5
M  V30 5 1 3 6
M  V30 6 1 5 7
M  V30 7 1 6 8
M  V30 8 1 7 9 CFG=1
M  V30 9 1 7 10
M  V30 10 2 8 11
M  V30 11 1 9 12
M  V30 12 1 9 13
M  V30 13 1 10 14
M  V30 14 1 11 15
M  V30 15 1 11 14
M  V30 END BOND
M  V30 BEGIN COLLECTION
M  V30 MDLV30/STERAC1 ATOMS=(1 7)
M  V30 END COLLECTION
M  V30 END CTAB
M  END
>  <Molecule Name>
germacrene

>  <Molecule Name 2>
germacrene

>  <Database>
Essential Oil Database

>  <InChI>
InChI=1S/C15H26/c1-12(2)15-10-8-13(3)6-5-7-14(4)9-11-15/h6,9,12,15H,5,7-8,10-11H2,1-4H3/b13-6-,14-9+/t15-/m0/s1

>  <InChI-Key>
YDLBHMSVYMFOMI-GNVJXCABSA-N

>  <Smiles>
CC(C)C1C/C=C(\C)/CC/C=C(\C)/CC1

>  <Molecular Formula>
C15H26

$$$$
linalyl isovalerate
Actelion Java MolfileCreator 2.0

  0  0  0  0  0  0              0 V3000
M  V30 BEGIN CTAB
M  V30 COUNTS 17 16 0 0 0
M  V30 BEGIN ATOM
M  V30 1 O 0.0 0.0 0.0 0
M  V30 2 C -0.8119 1.4081 0.0 0
M  V30 3 O -2.4357 1.535 0.0 0
M  V30 4 C -0.1395 2.8163 0.0 0
M  V30 5 C -3.2603 0.3805 0.0 0 CFG=2
M  V30 6 C 1.2305 2.9432 0.0 0
M  V30 7 C -2.1059 -0.2917 0.0 0
M  V30 8 C -4.0723 -0.7738 0.0 0
M  V30 9 C -4.6685 1.2052 0.0 0
M  V30 10 C 1.9156 4.3514 0.0 0
M  V30 11 C 1.9156 1.7887 0.0 0
M  V30 12 C -2.2327 -1.6619 0.0 0
M  V30 13 C -5.6961 -0.647 0.0 0
M  V30 14 C -6.5207 -1.8014 0.0 0
M  V30 15 C -8.1446 -1.6745 0.0 0
M  V30 16 C -8.9692 -2.829 0.0 0
M  V30 17 C -8.9692 -0.2664 0.0 0
M  V30 END ATOM
M  V30 BEGIN BOND
M  V30 1 2 1 2
M  V30 2 1 2 3
M  V30 3 1 2 4
M  V30 4 1 5 3 CFG=3
M  V30 5 1 4 6
M  V30 6 1 5 7
M  V30 7 1 5 8
M  V30 8 1 5 9
M  V30 9 1 6 10
M  V30 10 1 6 11
M  V30 11 2 7 12
M  V30 12 1 8 13
M  V30 13 1 13 14
M  V30 14 2 14 15
M  V30 15 1 15 16
M  V30 16 1 15 17
M  V30 END BOND
M  V30 BEGIN COLLECTION
M  V30 MDLV30/STERAC1 ATOMS=(1 5)
M  V30 END COLLECTION
M  V30 END CTAB
M  END
>  <Molecule Name>
linalyl isovalerate

>  <Molecule Name 2>
linalyl isovalerate

>  <Database>
Essential Oil Database

>  <InChI>
InChI=1S/C15H26O2/c1-7-15(6,10-8-9-12(2)3)17-14(16)11-13(4)5/h7,9,13H,1,8,10-11H2,2-6H3/t15-/m1/s1

>  <InChI-Key>
WCDGWAIZRYMVOW-OAHLLOKOSA-N

>  <Smiles>
CC(C)CC(OC(C)(CCC=C(C)C)C=C)=O

>  <Molecular Formula>
C15H26O2

$$$$
neryl isovalerate
Actelion Java MolfileCreator 2.0

  0  0  0  0  0  0              0 V3000
M  V30 BEGIN CTAB
M  V30 COUNTS 17 16 0 0 0
M  V30 BEGIN ATOM
M  V30 1 O 0.0 0.0 0.0 0
M  V30 2 C -0.1284 -1.3874 0.0 0
M  V30 3 O 1.0406 -2.0812 0.0 0
M  V30 4 C -1.5545 -2.0812 0.0 0
M  V30 5 C 2.2097 -1.2461 0.0 0
M  V30 6 C -2.9805 -1.2461 0.0 0
M  V30 7 C 3.3788 -1.9399 0.0 0
M  V30 8 C -4.4065 -1.9399 0.0 0
M  V30 9 C -3.109 0.3982 0.0 0
M  V30 10 C 4.5479 -1.1048 0.0 0
M  V30 11 C 4.4194 0.5395 0.0 0
M  V30 12 C 5.7169 -1.7986 0.0 0
M  V30 13 C 5.5885 1.3746 0.0 0
M  V30 14 C 5.46 3.019 0.0 0
M  V30 15 C 6.6291 3.8541 0.0 0
M  V30 16 C 6.5006 5.4985 0.0 0
M  V30 17 C 7.7982 3.1604 0.0 0
M  V30 END ATOM
M  V30 BEGIN BOND
M  V30 1 2 1 2
M  V30 2 1 2 3
M  V30 3 1 2 4
M  V30 4 1 3 5
M  V30 5 1 4 6
M  V30 6 1 5 7
M  V30 7 1 6 8
M  V30 8 1 6 9
M  V30 9 2 7 10
M  V30 10 1 10 11
M  V30 11 1 10 12
M  V30 12 1 11 13
M  V30 13 1 13 14
M  V30 14 2 14 15
M  V30 15 1 15 16
M  V30 16 1 15 17
M  V30 END BOND
M  V30 END CTAB
M  END
>  <Molecule Name>
neryl isovalerate

>  <Molecule Name 2>
neryl isovalerate

>  <Database>
Essential Oil Database

>  <InChI>
InChI=1S/C15H26O2/c1-12(2)7-6-8-14(5)9-10-17-15(16)11-13(3)4/h7,9,13H,6,8,10-11H2,1-5H3/b14-9-

>  <InChI-Key>
SOUKTGNMIRUIQN-ZROIWOOFSA-N

>  <Smiles>
CC(C)CC(OC/C=C(/C)\CCC=C(C)C)=O

>  <Molecular Formula>
C15H26O2

$$$$
valerenic acid
Actelion Java MolfileCreator 2.0

  0  0  0  0  0  0              0 V3000
M  V30 BEGIN CTAB
M  V30 COUNTS 17 18 0 0 0
M  V30 BEGIN ATOM
M  V30 1 O 0.0 0.0 0.0 0
M  V30 2 C 1.1161 0.7972 0.0 0
M  V30 3 O 2.2323 0.1349 0.0 0
M  V30 4 C 0.9934 2.3672 0.0 0
M  V30 5 C -0.3679 3.1644 0.0 0
M  V30 6 C 2.1096 3.1644 0.0 0
M  V30 7 C -0.4906 4.7344 0.0 0
M  V30 8 C -1.852 5.5317 0.0 0
M  V30 9 C 0.6255 5.5317 0.0 0
M  V30 10 C -3.3484 5.176 0.0 0
M  V30 11 C -1.9747 7.1016 0.0 0
M  V30 12 C 0.5028 7.1016 0.0 0
M  V30 13 C -4.2806 6.4516 0.0 0
M  V30 14 C -3.9494 3.9249 0.0 0
M  V30 15 C -0.8585 7.8989 0.0 0
M  V30 16 C -3.4711 7.7026 0.0 0
M  V30 17 C -0.9812 9.4688 0.0 0
M  V30 END ATOM
M  V30 BEGIN BOND
M  V30 1 2 1 2
M  V30 2 1 2 3
M  V30 3 1 2 4
M  V30 4 2 4 5
M  V30 5 1 4 6
M  V30 6 1 5 7
M  V30 7 1 7 8
M  V30 8 1 7 9
M  V30 9 2 8 10
M  V30 10 1 8 11
M  V30 11 1 9 12
M  V30 12 1 10 13
M  V30 13 1 10 14
M  V30 14 1 11 15
M  V30 15 1 11 16
M  V30 16 1 15 17
M  V30 17 1 12 15
M  V30 18 1 13 16
M  V30 END BOND
M  V30 END CTAB
M  END
>  <Molecule Name>
valerenic acid

>  <Molecule Name 2>
valerenic acid

>  <Database>
Essential Oil Database

>  <InChI>
InChI=1S/C15H22O2/c1-9-4-6-12(8-11(3)15(16)17)14-10(2)5-7-13(9)14/h8-9,12-13H,4-7H2,1-3H3,(H,16,17)/b11-8+

>  <InChI-Key>
FEBNTWHYQKGEIQ-DHZHZOJOSA-N

>  <Smiles>
CC(CCC1/C=C(\C)/C(O)=O)C2C1=C(C)CC2

>  <Molecular Formula>
C15H22O2

$$$$
2,3-decadienal
Actelion Java MolfileCreator 2.0

  0  0  0  0  0  0              0 V3000
M  V30 BEGIN CTAB
M  V30 COUNTS 11 10 0 0 0
M  V30 BEGIN ATOM
M  V30 1 O 0.0 0.0 0.0 0
M  V30 2 C -0.1357 1.7369 0.0 0
M  V30 3 C 1.0991 2.6325 0.0 0
M  V30 4 C 2.334 1.8998 0.0 0 CFG=2
M  V30 5 C 3.5689 1.167 0.0 0
M  V30 6 C 4.8038 2.049 0.0 0
M  V30 7 C 6.0386 1.3162 0.0 0
M  V30 8 C 7.2735 2.1983 0.0 0
M  V30 9 C 8.5084 1.4655 0.0 0
M  V30 10 C 9.7433 2.3476 0.0 0
M  V30 11 C 10.9781 1.6148 0.0 0
M  V30 END ATOM
M  V30 BEGIN BOND
M  V30 1 2 1 2
M  V30 2 1 3 2 CFG=3
M  V30 3 2 3 4
M  V30 4 2 4 5
M  V30 5 1 5 6
M  V30 6 1 6 7
M  V30 7 1 7 8
M  V30 8 1 8 9
M  V30 9 1 9 10
M  V30 10 1 10 11
M  V30 END BOND
M  V30 BEGIN COLLECTION
M  V30 MDLV30/STERAC1 ATOMS=(1 4)
M  V30 END COLLECTION
M  V30 END CTAB
M  END
>  <Molecule Name>
2,3-decadienal

>  <Molecule Name 2>
2,3-decadienal

>  <Database>
Essential Oil Database

>  <InChI>
InChI=1S/C10H16O/c1-2-3-4-5-6-7-8-9-10-11/h7,9-10H,2-6H2,1H3

>  <InChI-Key>
VIMOJWHQBRWFTR-UHFFFAOYSA-N

>  <Smiles>
CCCCCCC=C=CC=O

>  <Molecular Formula>
C10H16O

$$$$
2-ethylhexenol
Actelion Java MolfileCreator 2.0

  0  0  0  0  0  0              0 V3000
M  V30 BEGIN CTAB
M  V30 COUNTS 9 8 0 0 0
M  V30 BEGIN ATOM
M  V30 1 O 0.0 0.0 0.0 0
M  V30 2 C -0.7859 -1.1175 0.0 0
M  V30 3 C -2.3579 -0.9947 0.0 0
M  V30 4 C -3.1562 -2.1123 0.0 0
M  V30 5 C -3.1562 0.3684 0.0 0
M  V30 6 C -4.7282 -1.9895 0.0 0
M  V30 7 C -4.7282 0.4912 0.0 0
M  V30 8 C -5.5265 -3.1071 0.0 0
M  V30 9 C -7.0985 -2.9843 0.0 0
M  V30 END ATOM
M  V30 BEGIN BOND
M  V30 1 1 1 2
M  V30 2 2 2 3
M  V30 3 1 3 4
M  V30 4 1 3 5
M  V30 5 1 4 6
M  V30 6 1 5 7
M  V30 7 1 6 8
M  V30 8 1 8 9
M  V30 END BOND
M  V30 END CTAB
M  END
>  <Molecule Name>
2-ethylhexenol

>  <Molecule Name 2>
2-ethylhexenol

>  <Database>
Essential Oil Database

>  <InChI>
InChI=1S/C8H16O/c1-3-5-6-8(4-2)7-9/h7,9H,3-6H2,1-2H3/b8-7+

>  <InChI-Key>
MMELVRLTDGKXGU-BQYQJAHWSA-N

>  <Smiles>
CCCC/C(\CC)=C/O

>  <Molecular Formula>
C8H16O

$$$$
(e)-1-butenylcyclopentane
Actelion Java MolfileCreator 2.0

  0  0  0  0  0  0              0 V3000
M  V30 BEGIN CTAB
M  V30 COUNTS 9 9 0 0 0
M  V30 BEGIN ATOM
M  V30 1 C 0.0 0.0 0.0 0
M  V30 2 C -0.1318 1.6878 0.0 0
M  V30 3 C 1.1999 -0.712 0.0 0
M  V30 4 C -1.5955 2.5449 0.0 0
M  V30 5 C 1.068 -2.1361 0.0 0
M  V30 6 C 2.1757 -2.9273 0.0 0
M  V30 7 C -0.3032 -2.9273 0.0 0
M  V30 8 C 1.5296 -4.2723 0.0 0
M  V30 9 C 0.0791 -4.2723 0.0 0
M  V30 END ATOM
M  V30 BEGIN BOND
M  V30 1 2 1 2
M  V30 2 1 1 3
M  V30 3 1 2 4
M  V30 4 1 3 5
M  V30 5 1 5 6
M  V30 6 1 5 7
M  V30 7 1 6 8
M  V30 8 1 7 9
M  V30 9 1 8 9
M  V30 END BOND
M  V30 END CTAB
M  END
>  <Molecule Name>
(e)-1-butenylcyclopentane

>  <Molecule Name 2>
(e)-1-butenylcyclopentane

>  <Database>
Essential Oil Database

>  <InChI>
InChI=1S/C9H16/c1-2-3-6-9-7-4-5-8-9/h2-3,9H,4-8H2,1H3/b3-2+

>  <InChI-Key>
NOQZVJQBZJNOGE-NSCUHMNNSA-N

>  <Smiles>
C/C=C/CC1CCCC1

>  <Molecular Formula>
C9H16

$$$$
thymyl isovalerate
Actelion Java MolfileCreator 2.0

  0  0  0  0  0  0              0 V3000
M  V30 BEGIN CTAB
M  V30 COUNTS 17 17 0 0 0
M  V30 BEGIN ATOM
M  V30 1 O 0.0 0.0 0.0 0
M  V30 2 C -0.1298 1.6615 0.0 0
M  V30 3 O 1.0514 2.5052 0.0 0
M  V30 4 C -1.5706 2.5052 0.0 0
M  V30 5 C 2.2326 1.8173 0.0 0
M  V30 6 C -3.0115 1.8173 0.0 0
M  V30 7 C 3.4139 2.674 0.0 0
M  V30 8 C 2.1028 0.4153 0.0 0
M  V30 9 C -4.4523 2.674 0.0 0
M  V30 10 C -3.1413 0.4153 0.0 0
M  V30 11 C 4.5951 1.986 0.0 0
M  V30 12 C 3.2841 4.3355 0.0 0
M  V30 13 C 3.2841 -0.2725 0.0 0
M  V30 14 C 4.4653 0.5841 0.0 0
M  V30 15 C 4.4653 5.1793 0.0 0
M  V30 16 C 1.8432 5.1793 0.0 0
M  V30 17 C 3.1543 -1.6745 0.0 0
M  V30 END ATOM
M  V30 BEGIN BOND
M  V30 1 2 1 2
M  V30 2 1 2 3
M  V30 3 1 2 4
M  V30 4 1 3 5
M  V30 5 1 4 6
M  V30 6 2 5 7
M  V30 7 1 5 8
M  V30 8 1 6 9
M  V30 9 1 6 10
M  V30 10 1 7 11
M  V30 11 1 7 12
M  V30 12 2 8 13
M  V30 13 2 11 14
M  V30 14 1 12 15
M  V30 15 1 12 16
M  V30 16 1 13 17
M  V30 17 1 13 14
M  V30 END BOND
M  V30 END CTAB
M  END
>  <Molecule Name>
thymyl isovalerate

>  <Molecule Name 2>
thymyl isovalerate

>  <Database>
Essential Oil Database

>  <InChI>
InChI=1S/C15H22O2/c1-10(2)8-15(16)17-14-9-12(5)6-7-13(14)11(3)4/h6-7,9-11H,8H2,1-5H3

>  <InChI-Key>
NZIACPHCVAFJBR-UHFFFAOYSA-N

>  <Smiles>
CC(C)CC(Oc1c(C(C)C)ccc(C)c1)=O

>  <Molecular Formula>
C15H22O2

$$$$
(z)-2-octenal
Actelion Java MolfileCreator 2.0

  0  0  0  0  0  0              0 V3000
M  V30 BEGIN CTAB
M  V30 COUNTS 9 8 0 0 0
M  V30 BEGIN ATOM
M  V30 1 O 0.0 0.0 0.0 0
M  V30 2 C 1.2801 -0.6576 0.0 0
M  V30 3 C 1.1627 -2.1375 0.0 0
M  V30 4 C 2.4428 -2.7599 0.0 0
M  V30 5 C 3.723 -1.7969 0.0 0
M  V30 6 C 5.0031 -2.4193 0.0 0
M  V30 7 C 6.2833 -1.4563 0.0 0
M  V30 8 C 7.5635 -2.0787 0.0 0
M  V30 9 C 8.8436 -1.1157 0.0 0
M  V30 END ATOM
M  V30 BEGIN BOND
M  V30 1 2 1 2
M  V30 2 1 2 3
M  V30 3 2 3 4
M  V30 4 1 4 5
M  V30 5 1 5 6
M  V30 6 1 6 7
M  V30 7 1 7 8
M  V30 8 1 8 9
M  V30 END BOND
M  V30 END CTAB
M  END
>  <Molecule Name>
(z)-2-octenal

>  <Molecule Name 2>
(z)-2-octenal

>  <Database>
Essential Oil Database

>  <InChI>
InChI=1S/C8H14O/c1-2-3-4-5-6-7-8-9/h6-8H,2-5H2,1H3/b7-6-

>  <InChI-Key>
LVBXEMGDVWVTGY-SREVYHEPSA-N

>  <Smiles>
CCCCC/C=C\C=O

>  <Molecular Formula>
C8H14O

$$$$
azulene
Actelion Java MolfileCreator 2.0

  0  0  0  0  0  0              0 V3000
M  V30 BEGIN CTAB
M  V30 COUNTS 10 11 0 0 0
M  V30 BEGIN ATOM
M  V30 1 C 0.0 0.0 0.0 0
M  V30 2 C -0.1265 1.6204 0.0 0
M  V30 3 C 1.0127 -0.7722 0.0 0
M  V30 4 C -1.5444 -0.3671 0.0 0
M  V30 5 C 0.8861 2.6331 0.0 0
M  V30 6 C -1.671 2.2407 0.0 0
M  V30 7 C 2.342 -0.2911 0.0 0
M  V30 8 C -2.5065 0.9494 0.0 0
M  V30 9 C 2.2154 2.4053 0.0 0
M  V30 10 C 2.9116 1.1646 0.0 0
M  V30 END ATOM
M  V30 BEGIN BOND
M  V30 1 1 1 2
M  V30 2 1 1 3
M  V30 3 2 1 4
M  V30 4 2 2 5
M  V30 5 1 2 6
M  V30 6 2 3 7
M  V30 7 1 4 8
M  V30 8 1 5 9
M  V30 9 1 7 10
M  V30 10 2 6 8
M  V30 11 2 9 10
M  V30 END BOND
M  V30 END CTAB
M  END
>  <Molecule Name>
azulene

>  <Molecule Name 2>
azulene

>  <Database>
Essential Oil Database

>  <InChI>
InChI=1S/C10H8/c1-2-5-9-7-4-8-10(9)6-3-1/h1-8H

>  <InChI-Key>
CUFNKYGDVFVPHO-UHFFFAOYSA-N

>  <Smiles>
C1=CC2=CC=CC=CC2=C1

>  <Molecular Formula>
C10H8

$$$$
thymol methyl ether
Actelion Java MolfileCreator 2.0

  0  0  0  0  0  0              0 V3000
M  V30 BEGIN CTAB
M  V30 COUNTS 12 12 0 0 0
M  V30 BEGIN ATOM
M  V30 1 O 0.0 0.0 0.0 0
M  V30 2 C 1.2025 -0.7003 0.0 0
M  V30 3 C -0.1321 1.6914 0.0 0
M  V30 4 C 2.405 0.1453 0.0 0
M  V30 5 C 1.0703 -2.1275 0.0 0
M  V30 6 C 3.6075 -0.555 0.0 0
M  V30 7 C 2.2728 1.8368 0.0 0
M  V30 8 C 2.2728 -2.8278 0.0 0
M  V30 9 C 3.4753 -1.9821 0.0 0
M  V30 10 C 0.806 2.7089 0.0 0
M  V30 11 C 3.4753 2.7089 0.0 0
M  V30 12 C 2.1407 -4.255 0.0 0
M  V30 END ATOM
M  V30 BEGIN BOND
M  V30 1 1 1 2
M  V30 2 1 1 3
M  V30 3 2 2 4
M  V30 4 1 2 5
M  V30 5 1 4 6
M  V30 6 1 4 7
M  V30 7 2 5 8
M  V30 8 2 6 9
M  V30 9 1 7 10
M  V30 10 1 7 11
M  V30 11 1 8 12
M  V30 12 1 8 9
M  V30 END BOND
M  V30 END CTAB
M  END
>  <Molecule Name>
thymol methyl ether

>  <Molecule Name 2>
thymol methyl ether

>  <Database>
Essential Oil Database

>  <InChI>
InChI=1S/C11H16O/c1-8(2)10-6-5-9(3)7-11(10)12-4/h5-8H,1-4H3

>  <InChI-Key>
LSQXNMXDFRRDSJ-UHFFFAOYSA-N

>  <Smiles>
CC(C)c(ccc(C)c1)c1OC

>  <Molecular Formula>
C11H16O

$$$$
isobornyl isovalerate
Actelion Java MolfileCreator 2.0

  0  0  0  0  0  0              0 V3000
M  V30 BEGIN CTAB
M  V30 COUNTS 17 18 0 0 0
M  V30 BEGIN ATOM
M  V30 1 O 0.0 0.0 0.0 0
M  V30 2 C -0.1258 -1.3591 0.0 0
M  V30 3 O 1.0193 -2.0386 0.0 0
M  V30 4 C -1.5227 -2.0386 0.0 0
M  V30 5 C 2.1645 -1.2206 0.0 0
M  V30 6 C -2.9195 -1.2206 0.0 0
M  V30 7 C 3.3096 -1.9002 0.0 0 CFG=1
M  V30 8 C 2.0386 0.3901 0.0 0
M  V30 9 C -4.3164 -1.9002 0.0 0
M  V30 10 C -3.0454 0.3901 0.0 0
M  V30 11 C 2.7811 -0.2894 0.0 0
M  V30 12 C 4.4548 -1.0822 0.0 0
M  V30 13 C 3.1838 -3.2593 0.0 0
M  V30 14 C 3.1838 1.208 0.0 0 CFG=1
M  V30 15 C 1.2332 -0.6166 0.0 0
M  V30 16 C 1.2332 0.2894 0.0 0
M  V30 17 C 4.329 0.5285 0.0 0
M  V30 END ATOM
M  V30 BEGIN BOND
M  V30 1 2 1 2
M  V30 2 1 2 3
M  V30 3 1 2 4
M  V30 4 1 3 5
M  V30 5 1 4 6
M  V30 6 1 5 7
M  V30 7 1 5 8
M  V30 8 1 6 9
M  V30 9 1 6 10
M  V30 10 1 7 11
M  V30 11 1 7 12
M  V30 12 1 7 13 CFG=3
M  V30 13 1 14 8 CFG=3
M  V30 14 1 11 15
M  V30 15 1 11 16
M  V30 16 1 12 17
M  V30 17 1 11 14
M  V30 18 1 14 17
M  V30 END BOND
M  V30 BEGIN COLLECTION
M  V30 MDLV30/STERAC1 ATOMS=(2 7 14)
M  V30 END COLLECTION
M  V30 END CTAB
M  END
>  <Molecule Name>
isobornyl isovalerate

>  <Molecule Name 2>
isobornyl isovalerate

>  <Database>
Essential Oil Database

>  <InChI>
InChI=1S/C15H26O2/c1-10(2)8-13(16)17-12-9-11-6-7-15(12,5)14(11,3)4/h10-12H,6-9H2,1-5H3/t11-,12?,15-/m0/s1

>  <InChI-Key>
MPYYVGIJHREDBO-BQELKBSMSA-N

>  <Smiles>
CC(C)CC(OC1[C@](C)(CC2)C(C)(C)[C@@H]2C1)=O

>  <Molecular Formula>
C15H26O2

$$$$
carvacryl acetate
Actelion Java MolfileCreator 2.0

  0  0  0  0  0  0              0 V3000
M  V30 BEGIN CTAB
M  V30 COUNTS 14 14 0 0 0
M  V30 BEGIN ATOM
M  V30 1 O 0.0 0.0 0.0 0
M  V30 2 C -0.1298 -1.4021 0.0 0
M  V30 3 O 1.0515 -2.0901 0.0 0
M  V30 4 C -1.5708 -2.0901 0.0 0
M  V30 5 C 2.2329 -1.2333 0.0 0
M  V30 6 C 3.4143 -1.9214 0.0 0
M  V30 7 C 2.1031 0.4284 0.0 0
M  V30 8 C 4.5958 -1.0775 0.0 0
M  V30 9 C 3.2845 -3.3235 0.0 0
M  V30 10 C 3.2845 1.2722 0.0 0
M  V30 11 C 4.4659 0.5842 0.0 0
M  V30 12 C 3.1547 2.934 0.0 0
M  V30 13 C 4.3361 3.7779 0.0 0
M  V30 14 C 1.7136 3.7779 0.0 0
M  V30 END ATOM
M  V30 BEGIN BOND
M  V30 1 2 1 2
M  V30 2 1 2 3
M  V30 3 1 2 4
M  V30 4 1 3 5
M  V30 5 2 5 6
M  V30 6 1 5 7
M  V30 7 1 6 8
M  V30 8 1 6 9
M  V30 9 2 7 10
M  V30 10 2 8 11
M  V30 11 1 10 12
M  V30 12 1 12 13
M  V30 13 1 12 14
M  V30 14 1 10 11
M  V30 END BOND
M  V30 END CTAB
M  END
>  <Molecule Name>
carvacryl acetate

>  <Molecule Name 2>
carvacryl acetate

>  <Database>
Essential Oil Database

>  <InChI>
InChI=1S/C12H16O2/c1-8(2)11-6-5-9(3)12(7-11)14-10(4)13/h5-8H,1-4H3

>  <InChI-Key>
OXZSUQJHKQOGOK-UHFFFAOYSA-N

>  <Smiles>
CC(C)c1cc(OC(C)=O)c(C)cc1

>  <Molecular Formula>
C12H16O2

$$$$
valerenyl acetate
Actelion Java MolfileCreator 2.0

  0  0  0  0  0  0              0 V3000
M  V30 BEGIN CTAB
M  V30 COUNTS 9 8 0 0 0
M  V30 BEGIN ATOM
M  V30 1 O 0.0 0.0 0.0 0
M  V30 2 C -0.8194 -1.1651 0.0 0
M  V30 3 O -2.4583 -1.0371 0.0 0
M  V30 4 C -0.1408 -2.3302 0.0 0
M  V30 5 C -3.2905 -2.2022 0.0 0
M  V30 6 C -4.9294 -2.0742 0.0 0
M  V30 7 C -5.7617 -3.2393 0.0 0
M  V30 8 C -7.4005 -3.1113 0.0 0
M  V30 9 C -8.2328 -4.2764 0.0 0
M  V30 END ATOM
M  V30 BEGIN BOND
M  V30 1 2 1 2
M  V30 2 1 2 3
M  V30 3 1 2 4
M  V30 4 1 3 5
M  V30 5 2 5 6
M  V30 6 1 6 7
M  V30 7 1 7 8
M  V30 8 1 8 9
M  V30 END BOND
M  V30 END CTAB
M  END
>  <Molecule Name>
valerenyl acetate

>  <Molecule Name 2>
valerenyl acetate

>  <Database>
Essential Oil Database

>  <InChI>
InChI=1S/C7H12O2/c1-3-4-5-6-9-7(2)8/h5-6H,3-4H2,1-2H3/b6-5+

>  <InChI-Key>
XISWSMPYOFEMKE-AATRIKPKSA-N

>  <Smiles>
CCC/C=C/OC(C)=O

>  <Molecular Formula>
C7H12O2

$$$$
santolina triene
Actelion Java MolfileCreator 2.0

  0  0  0  0  0  0              0 V3000
M  V30 BEGIN CTAB
M  V30 COUNTS 10 9 0 0 0
M  V30 BEGIN ATOM
M  V30 1 C 0.0 0.0 0.0 0
M  V30 2 C 1.3899 0.1287 0.0 0
M  V30 3 C -0.8365 1.4286 0.0 0 CFG=2
M  V30 4 C -0.8365 -1.1712 0.0 0
M  V30 5 C -0.1544 2.8572 0.0 0
M  V30 6 C -2.4839 1.5573 0.0 0
M  V30 7 C 1.2355 2.9859 0.0 0
M  V30 8 C -3.3205 0.3861 0.0 0
M  V30 9 C 1.9176 4.4145 0.0 0
M  V30 10 C 1.9176 1.8147 0.0 0
M  V30 END ATOM
M  V30 BEGIN BOND
M  V30 1 2 1 2
M  V30 2 1 1 3
M  V30 3 1 1 4
M  V30 4 1 3 5 CFG=1
M  V30 5 1 3 6
M  V30 6 2 5 7
M  V30 7 2 6 8
M  V30 8 1 7 9
M  V30 9 1 7 10
M  V30 END BOND
M  V30 BEGIN COLLECTION
M  V30 MDLV30/STERAC1 ATOMS=(1 3)
M  V30 END COLLECTION
M  V30 END CTAB
M  END
>  <Molecule Name>
santolina triene

>  <Molecule Name 2>
santolina triene

>  <Database>
Essential Oil Database

>  <InChI>
InChI=1S/C10H16/c1-6-10(9(4)5)7-8(2)3/h6-7,10H,1,4H2,2-3,5H3/t10-/m0/s1

>  <InChI-Key>
ZQGDEJAPCUGBRH-JTQLQIEISA-N

>  <Smiles>
CC(C)=CC(C=C)C(C)=C

>  <Molecular Formula>
C10H16

$$$$
3,24-dioxours-12-en-28-oic acid
Actelion Java MolfileCreator 2.0

  0  0  0  0  0  0              0 V3000
M  V30 BEGIN CTAB
M  V30 COUNTS 34 38 0 0 0
M  V30 BEGIN ATOM
M  V30 1 O 0.0 0.0 0.0 0
M  V30 2 C -1.587 0.1239 0.0 0
M  V30 3 C -2.3929 -1.0042 0.0 0
M  V30 4 C -2.3929 1.5002 0.0 0
M  V30 5 C -1.153 -1.4134 0.0 0
M  V30 6 C -3.9799 -0.8802 0.0 0 CFG=1
M  V30 7 C -2.7896 -2.3185 0.0 0
M  V30 8 C -3.9799 1.6241 0.0 0
M  V30 9 O -1.0042 -2.7276 0.0 0
M  V30 10 C -4.7858 0.4959 0.0 0 CFG=2
M  V30 11 C -4.7858 -2.0085 0.0 0
M  V30 12 C -6.3728 0.6199 0.0 0 CFG=2
M  V30 13 C -5.5917 1.8721 0.0 0
M  V30 14 C -6.3728 -1.8845 0.0 0
M  V30 15 C -7.1787 -0.5083 0.0 0 CFG=1
M  V30 16 C -7.1787 1.9961 0.0 0
M  V30 17 C -8.7657 -0.3843 0.0 0 CFG=1
M  V30 18 C -7.1415 -1.8349 0.0 0
M  V30 19 C -8.7657 2.1201 0.0 0
M  V30 20 C -9.5716 0.9918 0.0 0
M  V30 21 C -9.5716 -1.5126 0.0 0
M  V30 22 C -8.0961 -1.5126 0.0 0
M  V30 23 C -11.1586 1.1158 0.0 0 CFG=1
M  V30 24 C -11.1586 -1.3886 0.0 0
M  V30 25 C -11.9645 -0.0123 0.0 0 CFG=2
M  V30 26 C -11.9645 2.492 0.0 0 CFG=2
M  V30 27 C -12.7704 -1.1406 0.0 0
M  V30 28 C -13.5515 0.1115 0.0 0
M  V30 29 C -13.5515 2.616 0.0 0 CFG=1
M  V30 30 C -11.3074 3.8683 0.0 0
M  V30 31 O -14.3574 -1.0166 0.0 0
M  V30 32 O -12.1133 -2.2689 0.0 0
M  V30 33 C -14.3574 1.4878 0.0 0
M  V30 34 C -14.3574 3.9923 0.0 0
M  V30 END ATOM
M  V30 BEGIN BOND
M  V30 1 2 1 2
M  V30 2 1 2 3
M  V30 3 1 2 4
M  V30 4 1 3 5
M  V30 5 1 3 6
M  V30 6 1 3 7
M  V30 7 1 4 8
M  V30 8 2 5 9
M  V30 9 1 6 10
M  V30 10 1 6 11 CFG=3
M  V30 11 1 10 12
M  V30 12 1 10 13 CFG=3
M  V30 13 1 11 14
M  V30 14 1 12 15
M  V30 15 1 12 16 CFG=3
M  V30 16 1 15 17
M  V30 17 1 15 18 CFG=3
M  V30 18 1 16 19
M  V30 19 1 17 20
M  V30 20 1 17 21
M  V30 21 1 17 22 CFG=1
M  V30 22 1 23 20 CFG=1
M  V30 23 1 21 24
M  V30 24 1 23 25
M  V30 25 1 23 26
M  V30 26 1 25 27 CFG=3
M  V30 27 1 25 28
M  V30 28 1 26 29
M  V30 29 1 26 30 CFG=3
M  V30 30 2 27 31
M  V30 31 1 27 32
M  V30 32 1 28 33
M  V30 33 1 29 34 CFG=1
M  V30 34 1 8 10
M  V30 35 1 14 15
M  V30 36 2 19 20
M  V30 37 1 24 25
M  V30 38 1 29 33
M  V30 END BOND
M  V30 BEGIN COLLECTION
M  V30 MDLV30/STERAC1 ATOMS=(9 6 10 12 15 17 23 25 26 29)
M  V30 END COLLECTION
M  V30 END CTAB
M  END
>  <Molecule Name>
3,24-dioxours-12-en-28-oic acid

>  <Molecule Name 2>
3,24-dioxours-12-en-28-oic acid

>  <Database>
Essential Oil Database

>  <InChI>
InChI=1S/C30H44O4/c1-18-9-14-30(25(33)34)16-15-28(5)20(24(30)19(18)2)7-8-22-26(3)12-11-23(32)27(4,17-31)21(26)10-13-29(22,28)6/h7,17-19,21-22,24H,8-16H2,1-6H3,(H,33,34)/t18-,19+,21-,22-,24+,26+,27?,28-,29-,30+/m1/s1

>  <InChI-Key>
DRPVNSWBXRHIGE-NAOYUQSUSA-N

>  <Smiles>
C[C@H](CC1)[C@H](C)[C@H]2C3=CC[C@H]([C@@](C)(CC4)[C@@H](CC5)C(C)(C=O)C4=O)[C@]5(C)[C@]3(C)CC[C@@]12C(O)=O

>  <Molecular Formula>
C30H44O4

$$$$
3-hydroxymethylcarvacrol
Actelion Java MolfileCreator 2.0

  0  0  0  0  0  0              0 V3000
M  V30 BEGIN CTAB
M  V30 COUNTS 13 13 0 0 0
M  V30 BEGIN ATOM
M  V30 1 O 0.0 0.0 0.0 0
M  V30 2 C 1.1882 0.8356 0.0 0
M  V30 3 C 2.3764 0.1436 0.0 0
M  V30 4 C 1.0576 2.507 0.0 0
M  V30 5 C 3.5646 0.9923 0.0 0
M  V30 6 C 2.2458 -1.2665 0.0 0
M  V30 7 C 2.2458 3.3557 0.0 0
M  V30 8 C 3.4341 2.6637 0.0 0
M  V30 9 C 4.7529 0.3003 0.0 0
M  V30 10 C 2.1153 5.0271 0.0 0
M  V30 11 O 4.6223 -1.1098 0.0 0
M  V30 12 C 0.6659 5.8758 0.0 0
M  V30 13 C 3.3035 5.8758 0.0 0
M  V30 END ATOM
M  V30 BEGIN BOND
M  V30 1 1 1 2
M  V30 2 2 2 3
M  V30 3 1 2 4
M  V30 4 1 3 5
M  V30 5 1 3 6
M  V30 6 2 4 7
M  V30 7 2 5 8
M  V30 8 1 5 9
M  V30 9 1 7 10
M  V30 10 1 9 11
M  V30 11 1 10 12
M  V30 12 1 10 13
M  V30 13 1 7 8
M  V30 END BOND
M  V30 END CTAB
M  END
>  <Molecule Name>
3-hydroxymethylcarvacrol

>  <Molecule Name 2>
3-hydroxymethylcarvacrol

>  <Database>
Essential Oil Database

>  <InChI>
InChI=1S/C11H16O2/c1-7(2)9-4-10(6-12)8(3)11(13)5-9/h4-5,7,12-13H,6H2,1-3H3

>  <InChI-Key>
BDOHPMOZDVLKFU-UHFFFAOYSA-N

>  <Smiles>
CC(C)c1cc(O)c(C)c(CO)c1

>  <Molecular Formula>
C11H16O2

$$$$
3-octen-3-ol
Actelion Java MolfileCreator 2.0

  0  0  0  0  0  0              0 V3000
M  V30 BEGIN CTAB
M  V30 COUNTS 9 8 0 0 0
M  V30 BEGIN ATOM
M  V30 1 O 0.0 0.0 0.0 0
M  V30 2 C -0.8447 1.4425 0.0 0
M  V30 3 C -2.5082 1.5725 0.0 0
M  V30 4 C -0.1559 2.8851 0.0 0
M  V30 5 C -3.366 0.3898 0.0 0
M  V30 6 C 1.2476 3.0151 0.0 0
M  V30 7 C -2.6772 -0.7927 0.0 0
M  V30 8 C -3.5219 -1.9754 0.0 0
M  V30 9 C -2.8331 -3.158 0.0 0
M  V30 END ATOM
M  V30 BEGIN BOND
M  V30 1 1 1 2
M  V30 2 2 2 3
M  V30 3 1 2 4
M  V30 4 1 3 5
M  V30 5 1 4 6
M  V30 6 1 5 7
M  V30 7 1 7 8
M  V30 8 1 8 9
M  V30 END BOND
M  V30 END CTAB
M  END
>  <Molecule Name>
3-octen-3-ol

>  <Molecule Name 2>
3-octen-3-ol

>  <Database>
Essential Oil Database

>  <InChI>
InChI=1S/C8H16O/c1-3-5-6-7-8(9)4-2/h7,9H,3-6H2,1-2H3/b8-7-

>  <InChI-Key>
KSBRKFAKVDLBGU-FPLPWBNLSA-N

>  <Smiles>
CCCC/C=C(/CC)\O

>  <Molecular Formula>
C8H16O

$$$$
6-ethenyltetrahydro-2,2,6-trimethyl-2h-pyran-3(4h)-one
Actelion Java MolfileCreator 2.0

  0  0  0  0  0  0              0 V3000
M  V30 BEGIN CTAB
M  V30 COUNTS 12 12 0 0 0
M  V30 BEGIN ATOM
M  V30 1 O 0.0 0.0 0.0 0
M  V30 2 C -0.1229 1.5743 0.0 0
M  V30 3 C 0.9962 2.3861 0.0 0
M  V30 4 C -1.4882 2.3861 0.0 0
M  V30 5 O 0.8732 3.9604 0.0 0
M  V30 6 C 2.3246 2.4599 0.0 0
M  V30 7 C 1.6727 1.2914 0.0 0
M  V30 8 C -1.6112 3.9604 0.0 0
M  V30 9 C -0.4919 4.7722 0.0 0 CFG=1
M  V30 10 C 0.1229 6.162 0.0 0
M  V30 11 C -1.2914 6.162 0.0 0
M  V30 12 C -0.7133 7.5027 0.0 0
M  V30 END ATOM
M  V30 BEGIN BOND
M  V30 1 2 1 2
M  V30 2 1 2 3
M  V30 3 1 2 4
M  V30 4 1 3 5
M  V30 5 1 3 6
M  V30 6 1 3 7
M  V30 7 1 4 8
M  V30 8 1 5 9
M  V30 9 1 9 10
M  V30 10 1 9 11 CFG=3
M  V30 11 2 10 12
M  V30 12 1 8 9
M  V30 END BOND
M  V30 BEGIN COLLECTION
M  V30 MDLV30/STERAC1 ATOMS=(1 9)
M  V30 END COLLECTION
M  V30 END CTAB
M  END
>  <Molecule Name>
6-ethenyltetrahydro-2,2,6-trimethyl-2h-pyran-3(4h)-one

>  <Molecule Name 2>
6-ethenyltetrahydro-2,2,6-trimethyl-2h-pyran-3(4h)-one

>  <Database>
Essential Oil Database

>  <InChI>
InChI=1S/C10H16O2/c1-5-10(4)7-6-8(11)9(2,3)12-10/h5H,1,6-7H2,2-4H3/t10-/m1/s1

>  <InChI-Key>
ATQPZCOAQSYTPR-SNVBAGLBSA-N

>  <Smiles>
CC(C)(C(CC1)=O)OC1(C)C=C

>  <Molecular Formula>
C10H16O2

$$$$
dihydro-beta-ionone
Actelion Java MolfileCreator 2.0

  0  0  0  0  0  0              0 V3000
M  V30 BEGIN CTAB
M  V30 COUNTS 14 14 0 0 0
M  V30 BEGIN ATOM
M  V30 1 O 0.0 0.0 0.0 0
M  V30 2 C -1.3785 0.8072 0.0 0
M  V30 3 C -2.757 0.149 0.0 0
M  V30 4 C -1.5027 2.3969 0.0 0
M  V30 5 C -2.8812 -1.1922 0.0 0
M  V30 6 C -4.2598 -1.8504 0.0 0
M  V30 7 C -4.3839 -3.1917 0.0 0
M  V30 8 C -5.6383 -1.0432 0.0 0
M  V30 9 C -5.7625 -3.8499 0.0 0
M  V30 10 C -3.2538 -3.8499 0.0 0
M  V30 11 C -7.0168 -1.7014 0.0 0
M  V30 12 C -6.4455 0.3601 0.0 0
M  V30 13 C -5.0173 0.3601 0.0 0
M  V30 14 C -7.141 -3.0427 0.0 0
M  V30 END ATOM
M  V30 BEGIN BOND
M  V30 1 2 1 2
M  V30 2 1 2 3
M  V30 3 1 2 4
M  V30 4 1 3 5
M  V30 5 1 5 6
M  V30 6 2 6 7
M  V30 7 1 6 8
M  V30 8 1 7 9
M  V30 9 1 7 10
M  V30 10 1 8 11
M  V30 11 1 8 12
M  V30 12 1 8 13
M  V30 13 1 9 14
M  V30 14 1 11 14
M  V30 END BOND
M  V30 END CTAB
M  END
>  <Molecule Name>
dihydro-beta-ionone

>  <Molecule Name 2>
dihydro-beta-ionone

>  <Database>
Essential Oil Database

>  <InChI>
InChI=1S/C13H22O/c1-10-6-5-9-13(3,4)12(10)8-7-11(2)14/h5-9H2,1-4H3

>  <InChI-Key>
QJJDNZGPQDGNDX-UHFFFAOYSA-N

>  <Smiles>
CC1(C)C(CCC(C)=O)=C(C)CCC1

>  <Molecular Formula>
C13H22O

$$$$
beta-caryophyllene oxide
Actelion Java MolfileCreator 2.0

  0  0  0  0  0  0              0 V3000
M  V30 BEGIN CTAB
M  V30 COUNTS 16 18 0 0 0
M  V30 BEGIN ATOM
M  V30 1 O 0.0 0.0 0.0 0
M  V30 2 C 1.3586 0.6994 0.0 0 CFG=2
M  V30 3 C 1.0357 -0.8609 0.0 0 CFG=2
M  V30 4 C 2.4213 1.8025 0.0 0
M  V30 5 C 0.4842 2.206 0.0 0
M  V30 6 C 1.7352 -2.0984 0.0 0
M  V30 7 C 3.874 1.9235 0.0 0
M  V30 8 C 3.0804 -2.5692 0.0 0
M  V30 9 C 4.9098 1.0626 0.0 0 CFG=2
M  V30 10 C 4.439 -1.8697 0.0 0
M  V30 11 C 6.3357 1.4796 0.0 0
M  V30 12 C 5.0578 -0.3631 0.0 0 CFG=2
M  V30 13 C 5.273 -2.9324 0.0 0
M  V30 14 C 6.4837 0.0538 0.0 0
M  V30 15 C 7.654 2.2733 0.0 0
M  V30 16 C 6.3222 3.2015 0.0 0
M  V30 END ATOM
M  V30 BEGIN BOND
M  V30 1 1 1 2
M  V30 2 1 3 1 CFG=3
M  V30 3 1 2 4
M  V30 4 1 2 5 CFG=3
M  V30 5 1 3 6
M  V30 6 1 4 7
M  V30 7 1 6 8
M  V30 8 1 9 7 CFG=3
M  V30 9 1 8 10
M  V30 10 1 9 11
M  V30 11 1 9 12
M  V30 12 2 10 13
M  V30 13 1 11 14
M  V30 14 1 11 15
M  V30 15 1 11 16
M  V30 16 1 2 3
M  V30 17 1 12 10 CFG=1
M  V30 18 1 12 14
M  V30 END BOND
M  V30 BEGIN COLLECTION
M  V30 MDLV30/STERAC1 ATOMS=(4 2 3 9 12)
M  V30 END COLLECTION
M  V30 END CTAB
M  END
>  <Molecule Name>
beta-caryophyllene oxide

>  <Molecule Name 2>
beta-caryophyllene oxide

>  <Database>
Essential Oil Database

>  <InChI>
InChI=1S/C15H24O/c1-10-5-6-13-15(4,16-13)8-7-12-11(10)9-14(12,2)3/h11-13H,1,5-9H2,2-4H3/t11-,12-,13-,15-/m0/s1

>  <InChI-Key>
NVEQFIOZRFFVFW-ABHRYQDASA-N

>  <Smiles>
C[C@@]1(CC[C@@H]2C(C)(C)C[C@H]22)O[C@H]1CCC2=C

>  <Molecular Formula>
C15H24O

$$$$
isosafrole
Actelion Java MolfileCreator 2.0

  0  0  0  0  0  0              0 V3000
M  V30 BEGIN CTAB
M  V30 COUNTS 12 13 0 0 0
M  V30 BEGIN ATOM
M  V30 1 O 0.0 0.0 0.0 0
M  V30 2 C 1.3845 -0.3936 0.0 0
M  V30 3 C -1.0316 -1.1402 0.0 0
M  V30 4 C 1.2487 -1.8596 0.0 0
M  V30 5 C 2.6197 0.475 0.0 0
M  V30 6 O -0.2171 -2.2804 0.0 0
M  V30 7 C 2.484 -2.579 0.0 0
M  V30 8 C 3.8549 -0.2443 0.0 0
M  V30 9 C 3.7192 -1.6967 0.0 0
M  V30 10 C 5.0901 0.6379 0.0 0
M  V30 11 C 4.9544 2.3754 0.0 0
M  V30 12 C 6.1896 3.2577 0.0 0
M  V30 END ATOM
M  V30 BEGIN BOND
M  V30 1 1 1 2
M  V30 2 1 1 3
M  V30 3 2 2 4
M  V30 4 1 2 5
M  V30 5 1 3 6
M  V30 6 1 4 7
M  V30 7 2 5 8
M  V30 8 2 7 9
M  V30 9 1 8 10
M  V30 10 2 10 11
M  V30 11 1 11 12
M  V30 12 1 4 6
M  V30 13 1 8 9
M  V30 END BOND
M  V30 END CTAB
M  END
>  <Molecule Name>
isosafrole

>  <Molecule Name 2>
isosafrole

>  <Database>
Essential Oil Database

>  <InChI>
InChI=1S/C10H10O2/c1-2-3-8-4-5-9-10(6-8)12-7-11-9/h2-6H,7H2,1H3/b3-2+

>  <InChI-Key>
VHVOLFRBFDOUSH-NSCUHMNNSA-N

>  <Smiles>
C/C=C/c(cc1)cc2c1OCO2

>  <Molecular Formula>
C10H10O2

$$$$
9,12,15-octadecatrienoic acid, ethylester
Actelion Java MolfileCreator 2.0

  0  0  0  0  0  0              0 V3000
M  V30 BEGIN CTAB
M  V30 COUNTS 22 21 0 0 0
M  V30 BEGIN ATOM
M  V30 1 O 0.0 0.0 0.0 0
M  V30 2 C -0.1217 1.5588 0.0 0
M  V30 3 O 0.9864 2.3504 0.0 0
M  V30 4 C -1.4736 2.3504 0.0 0
M  V30 5 C 2.0947 1.6928 0.0 0
M  V30 6 C -2.8254 1.6928 0.0 0
M  V30 7 C 3.2029 2.4844 0.0 0
M  V30 8 C -4.1772 2.4844 0.0 0
M  V30 9 C -5.5291 1.8267 0.0 0
M  V30 10 C -6.8809 2.6184 0.0 0
M  V30 11 C -8.2327 1.9607 0.0 0
M  V30 12 C -9.5846 2.7645 0.0 0
M  V30 13 C -10.9364 2.1069 0.0 0
M  V30 14 C -12.2882 2.8985 0.0 0
M  V30 15 C -13.64 2.2408 0.0 0
M  V30 16 C -14.9919 3.0324 0.0 0
M  V30 17 C -15.1137 4.5913 0.0 0
M  V30 18 C -16.4655 5.3951 0.0 0
M  V30 19 C -16.5873 6.954 0.0 0
M  V30 20 C -15.479 7.7578 0.0 0
M  V30 21 C -15.6008 9.3166 0.0 0
M  V30 22 C -14.4926 10.1204 0.0 0
M  V30 END ATOM
M  V30 BEGIN BOND
M  V30 1 2 1 2
M  V30 2 1 2 3
M  V30 3 1 2 4
M  V30 4 1 3 5
M  V30 5 1 4 6
M  V30 6 1 5 7
M  V30 7 1 6 8
M  V30 8 1 8 9
M  V30 9 1 9 10
M  V30 10 1 10 11
M  V30 11 1 11 12
M  V30 12 1 12 13
M  V30 13 2 13 14
M  V30 14 1 14 15
M  V30 15 1 15 16
M  V30 16 2 16 17
M  V30 17 1 17 18
M  V30 18 1 18 19
M  V30 19 2 19 20
M  V30 20 1 20 21
M  V30 21 1 21 22
M  V30 END BOND
M  V30 END CTAB
M  END
>  <Molecule Name>
9,12,15-octadecatrienoic acid, ethylester

>  <Molecule Name 2>
9,12,15-octadecatrienoic acid, ethylester

>  <Database>
Essential Oil Database

>  <InChI>
InChI=1S/C20H34O2/c1-3-5-6-7-8-9-10-11-12-13-14-15-16-17-18-19-20(21)22-4-2/h5-6,8-9,11-12H,3-4,7,10,13-19H2,1-2H3/b6-5+,9-8+,12-11+

>  <InChI-Key>
JYYFMIOPGOFNPK-XSHSMGBESA-N

>  <Smiles>
CC/C=C/C/C=C/C/C=C/CCCCCCCC(OCC)=O

>  <Molecular Formula>
C20H34O2

$$$$
2,6-dimethyl-4-heptanone
Actelion Java MolfileCreator 2.0

  0  0  0  0  0  0              0 V3000
M  V30 BEGIN CTAB
M  V30 COUNTS 10 9 0 0 0
M  V30 BEGIN ATOM
M  V30 1 O 0.0 0.0 0.0 0
M  V30 2 C -0.1276 1.6337 0.0 0
M  V30 3 C -1.5444 2.4761 0.0 0
M  V30 4 C 1.0338 2.4761 0.0 0
M  V30 5 C -2.9612 1.7869 0.0 0
M  V30 6 C 2.1953 1.7869 0.0 0
M  V30 7 C -4.3779 2.6293 0.0 0
M  V30 8 C -3.0888 0.4084 0.0 0
M  V30 9 C 3.3568 2.6293 0.0 0
M  V30 10 C 2.0677 0.4084 0.0 0
M  V30 END ATOM
M  V30 BEGIN BOND
M  V30 1 2 1 2
M  V30 2 1 2 3
M  V30 3 1 2 4
M  V30 4 1 3 5
M  V30 5 1 4 6
M  V30 6 1 5 7
M  V30 7 1 5 8
M  V30 8 1 6 9
M  V30 9 1 6 10
M  V30 END BOND
M  V30 END CTAB
M  END
>  <Molecule Name>
2,6-dimethyl-4-heptanone

>  <Molecule Name 2>
2,6-dimethyl-4-heptanone

>  <Database>
Essential Oil Database

>  <InChI>
InChI=1S/C9H18O/c1-7(2)5-9(10)6-8(3)4/h7-8H,5-6H2,1-4H3

>  <InChI-Key>
PTTPXKJBFFKCEK-UHFFFAOYSA-N

>  <Smiles>
CC(C)CC(CC(C)C)=O

>  <Molecular Formula>
C9H18O

$$$$
3-eicosyne
Actelion Java MolfileCreator 2.0

  0  0  0  0  0  0              0 V3000
M  V30 BEGIN CTAB
M  V30 COUNTS 20 19 0 0 0
M  V30 BEGIN ATOM
M  V30 1 C 0.0 0.0 0.0 0
M  V30 2 C -1.4806 0.8559 0.0 0
M  V30 3 C 1.2492 -0.6709 0.0 0
M  V30 4 C -2.9612 1.7119 0.0 0
M  V30 5 C 2.4985 0.185 0.0 0
M  V30 6 C -4.4418 1.041 0.0 0
M  V30 7 C 3.7478 -0.4742 0.0 0
M  V30 8 C 4.997 0.3817 0.0 0
M  V30 9 C 6.2463 -0.2891 0.0 0
M  V30 10 C 7.4956 0.5667 0.0 0
M  V30 11 C 8.7449 -0.1041 0.0 0
M  V30 12 C 9.9941 0.7518 0.0 0
M  V30 13 C 11.2434 0.0809 0.0 0
M  V30 14 C 12.4927 0.9369 0.0 0
M  V30 15 C 13.7419 0.2776 0.0 0
M  V30 16 C 14.9912 1.1335 0.0 0
M  V30 17 C 16.2405 0.4626 0.0 0
M  V30 18 C 17.4898 1.3186 0.0 0
M  V30 19 C 18.739 0.6362 0.0 0
M  V30 20 C 19.9883 1.4921 0.0 0
M  V30 END ATOM
M  V30 BEGIN BOND
M  V30 1 3 1 2
M  V30 2 1 1 3
M  V30 3 1 2 4
M  V30 4 1 3 5
M  V30 5 1 4 6
M  V30 6 1 5 7
M  V30 7 1 7 8
M  V30 8 1 8 9
M  V30 9 1 9 10
M  V30 10 1 10 11
M  V30 11 1 11 12
M  V30 12 1 12 13
M  V30 13 1 13 14
M  V30 14 1 14 15
M  V30 15 1 15 16
M  V30 16 1 16 17
M  V30 17 1 17 18
M  V30 18 1 18 19
M  V30 19 1 19 20
M  V30 END BOND
M  V30 END CTAB
M  END
>  <Molecule Name>
3-eicosyne

>  <Molecule Name 2>
3-eicosyne

>  <Database>
Essential Oil Database

>  <InChI>
InChI=1S/C20H38/c1-3-5-7-9-11-13-15-17-19-20-18-16-14-12-10-8-6-4-2/h3-5,7,9-20H2,1-2H3

>  <InChI-Key>
AQBXRWJMJJJCLI-UHFFFAOYSA-N

>  <Smiles>
CCCCCCCCCCCCCCCCC#CCC

>  <Molecular Formula>
C20H38

$$$$
5-methoxy-2,2-dimethylindan-1-one
Actelion Java MolfileCreator 2.0

  0  0  0  0  0  0              0 V3000
M  V30 BEGIN CTAB
M  V30 COUNTS 14 15 0 0 0
M  V30 BEGIN ATOM
M  V30 1 O 0.0 0.0 0.0 0
M  V30 2 C 0.3654 1.5373 0.0 0
M  V30 3 C 1.6507 2.1548 0.0 0
M  V30 4 C -0.5922 2.8478 0.0 0
M  V30 5 C 1.5247 3.7677 0.0 0
M  V30 6 C 2.7974 1.4743 0.0 0
M  V30 7 C 0.1512 4.1584 0.0 0
M  V30 8 C -2.0036 2.1926 0.0 0
M  V30 9 C -2.0036 3.6669 0.0 0
M  V30 10 C 2.6714 4.5868 0.0 0
M  V30 11 C 3.9442 2.2934 0.0 0
M  V30 12 C 3.8181 3.9063 0.0 0
M  V30 13 O 4.9649 4.7254 0.0 0
M  V30 14 C 4.8388 6.3384 0.0 0
M  V30 END ATOM
M  V30 BEGIN BOND
M  V30 1 2 1 2
M  V30 2 1 2 3
M  V30 3 1 2 4
M  V30 4 2 3 5
M  V30 5 1 3 6
M  V30 6 1 4 7
M  V30 7 1 4 8
M  V30 8 1 4 9
M  V30 9 1 5 10
M  V30 10 2 6 11
M  V30 11 2 10 12
M  V30 12 1 12 13
M  V30 13 1 13 14
M  V30 14 1 5 7
M  V30 15 1 11 12
M  V30 END BOND
M  V30 END CTAB
M  END
>  <Molecule Name>
5-methoxy-2,2-dimethylindan-1-one

>  <Molecule Name 2>
5-methoxy-2,2-dimethylindan-1-one

>  <Database>
Essential Oil Database

>  <InChI>
InChI=1S/C12H14O2/c1-12(2)7-8-6-9(14-3)4-5-10(8)11(12)13/h4-6H,7H2,1-3H3

>  <InChI-Key>
ZENPNFPJVPODJW-UHFFFAOYSA-N

>  <Smiles>
CC(C)(Cc1c2ccc(OC)c1)C2=O

>  <Molecular Formula>
C12H14O2

$$$$
butyl phthalate
Actelion Java MolfileCreator 2.0

  0  0  0  0  0  0              0 V3000
M  V30 BEGIN CTAB
M  V30 COUNTS 20 20 0 0 0
M  V30 BEGIN ATOM
M  V30 1 O 0.0 0.0 0.0 0
M  V30 2 C -1.4087 0.8122 0.0 0
M  V30 3 O -1.5357 2.4368 0.0 0
M  V30 4 C -2.8175 0.1396 0.0 0
M  V30 5 C -2.9444 3.2617 0.0 0
M  V30 6 C -2.9444 -1.2311 0.0 0
M  V30 7 C -4.2263 0.9645 0.0 0
M  V30 8 C -4.3532 2.5764 0.0 0
M  V30 9 C -1.7895 -1.9037 0.0 0
M  V30 10 C -4.3532 -1.9037 0.0 0
M  V30 11 C -5.6351 0.2919 0.0 0
M  V30 12 C -5.762 3.4013 0.0 0
M  V30 13 O -1.9164 -3.2744 0.0 0
M  V30 14 O -0.6345 -1.0788 0.0 0
M  V30 15 C -5.762 -1.0788 0.0 0
M  V30 16 C -7.1708 2.716 0.0 0
M  V30 17 C 0.5203 -1.7514 0.0 0
M  V30 18 C 1.6753 -0.9264 0.0 0
M  V30 19 C 2.8302 -1.5991 0.0 0
M  V30 20 C 3.9852 -0.7741 0.0 0
M  V30 END ATOM
M  V30 BEGIN BOND
M  V30 1 2 1 2
M  V30 2 1 2 3
M  V30 3 1 2 4
M  V30 4 1 3 5
M  V30 5 2 4 6
M  V30 6 1 4 7
M  V30 7 1 5 8
M  V30 8 1 6 9
M  V30 9 1 6 10
M  V30 10 2 7 11
M  V30 11 1 8 12
M  V30 12 2 9 13
M  V30 13 1 9 14
M  V30 14 2 10 15
M  V30 15 1 12 16
M  V30 16 1 14 17
M  V30 17 1 17 18
M  V30 18 1 18 19
M  V30 19 1 19 20
M  V30 20 1 11 15
M  V30 END BOND
M  V30 END CTAB
M  END
>  <Molecule Name>
butyl phthalate

>  <Molecule Name 2>
butyl phthalate

>  <Database>
Essential Oil Database

>  <InChI>
InChI=1S/C16H22O4/c1-3-5-11-19-15(17)13-9-7-8-10-14(13)16(18)20-12-6-4-2/h7-10H,3-6,11-12H2,1-2H3

>  <InChI-Key>
DOIRQSBPFJWKBE-UHFFFAOYSA-N

>  <Smiles>
CCCCOC(c(cccc1)c1C(OCCCC)=O)=O

>  <Molecular Formula>
C16H22O4

$$$$
cycloheptatriene
Actelion Java MolfileCreator 2.0

  0  0  0  0  0  0              0 V3000
M  V30 BEGIN CTAB
M  V30 COUNTS 7 7 0 0 0
M  V30 BEGIN ATOM
M  V30 1 C 0.0 0.0 0.0 0
M  V30 2 C -1.5352 0.1199 0.0 0
M  V30 3 C 0.7436 1.1994 0.0 0
M  V30 4 C -2.4947 1.3193 0.0 0
M  V30 5 C 0.2878 2.6986 0.0 0
M  V30 6 C -2.2788 2.8186 0.0 0
M  V30 7 C -1.0914 3.4662 0.0 0
M  V30 END ATOM
M  V30 BEGIN BOND
M  V30 1 2 1 2
M  V30 2 1 1 3
M  V30 3 1 2 4
M  V30 4 2 3 5
M  V30 5 2 4 6
M  V30 6 1 5 7
M  V30 7 1 6 7
M  V30 END BOND
M  V30 END CTAB
M  END
>  <Molecule Name>
cycloheptatriene

>  <Molecule Name 2>
cycloheptatriene

>  <Database>
Essential Oil Database

>  <InChI>
InChI=1S/C7H8/c1-2-4-6-7-5-3-1/h1-6H,7H2

>  <InChI-Key>
CHVJITGCYZJHLR-UHFFFAOYSA-N

>  <Smiles>
C1C=CC=CC=C1

>  <Molecular Formula>
C7H8

$$$$
l-borneol
Actelion Java MolfileCreator 2.0

  0  0  0  0  0  0              0 V3000
M  V30 BEGIN CTAB
M  V30 COUNTS 11 12 0 0 0
M  V30 BEGIN ATOM
M  V30 1 O 0.0 0.0 0.0 0
M  V30 2 C -1.3226 0.7625 0.0 0 CFG=2
M  V30 3 C -2.6452 0.131 0.0 0 CFG=1
M  V30 4 C -1.4417 2.2877 0.0 0
M  V30 5 C -3.1456 1.6562 0.0 0
M  V30 6 C -3.9678 0.9055 0.0 0
M  V30 7 C -2.7643 -1.1557 0.0 0
M  V30 8 C -2.7643 3.0622 0.0 0 CFG=2
M  V30 9 C -4.6112 2.2043 0.0 0
M  V30 10 C -4.6112 1.3464 0.0 0
M  V30 11 C -4.0869 2.4307 0.0 0
M  V30 END ATOM
M  V30 BEGIN BOND
M  V30 1 1 2 1 CFG=3
M  V30 2 1 2 3
M  V30 3 1 2 4
M  V30 4 1 3 5
M  V30 5 1 3 6
M  V30 6 1 3 7 CFG=1
M  V30 7 1 8 4 CFG=3
M  V30 8 1 5 9
M  V30 9 1 5 10
M  V30 10 1 6 11
M  V30 11 1 5 8
M  V30 12 1 8 11
M  V30 END BOND
M  V30 BEGIN COLLECTION
M  V30 MDLV30/STERAC1 ATOMS=(3 2 3 8)
M  V30 END COLLECTION
M  V30 END CTAB
M  END
>  <Molecule Name>
l-borneol

>  <Molecule Name 2>
l-borneol

>  <Database>
Essential Oil Database

>  <InChI>
InChI=1S/C10H18O/c1-9(2)7-4-5-10(9,3)8(11)6-7/h7-8,11H,4-6H2,1-3H3/t7-,8+,10+/m1/s1

>  <InChI-Key>
DTGKSKDOIYIVQL-WEDXCCLWSA-N

>  <Smiles>
CC(C)([C@H](CC1)C2)[C@]1(C)[C@H]2O

>  <Molecular Formula>
C10H18O

$$$$
perfluorotributylamine
Actelion Java MolfileCreator 2.0

  0  0  0  0  0  0              0 V3000
M  V30 BEGIN CTAB
M  V30 COUNTS 40 39 0 0 0
M  V30 BEGIN ATOM
M  V30 1 F 0.0 0.0 0.0 0
M  V30 2 C -0.1253 1.6043 0.0 0
M  V30 3 F 1.2283 1.7296 0.0 0
M  V30 4 F -1.7296 1.7296 0.0 0
M  V30 5 C -0.2506 3.2086 0.0 0
M  V30 6 F 1.1029 3.3339 0.0 0
M  V30 7 F -1.8549 3.3339 0.0 0
M  V30 8 C -0.376 4.8129 0.0 0
M  V30 9 F 0.9776 4.9382 0.0 0
M  V30 10 F -1.9803 4.9382 0.0 0
M  V30 11 C -0.5013 6.4172 0.0 0
M  V30 12 F 0.8522 6.5425 0.0 0
M  V30 13 F -2.1056 6.5425 0.0 0
M  V30 14 N -0.6266 8.0215 0.0 0
M  V30 15 C -2.0179 8.8362 0.0 0
M  V30 16 C 0.5138 8.8362 0.0 0
M  V30 17 F -1.3411 10.2274 0.0 0
M  V30 18 F -2.82 7.6956 0.0 0
M  V30 19 C -3.4091 9.6509 0.0 0
M  V30 20 F -0.2882 10.2274 0.0 0
M  V30 21 F 1.1781 7.6956 0.0 0
M  V30 22 C 1.6544 9.6509 0.0 0
M  V30 23 F -2.7323 11.0421 0.0 0
M  V30 24 F -4.2238 8.5103 0.0 0
M  V30 25 C -4.8004 10.4656 0.0 0
M  V30 26 F 2.3187 8.5103 0.0 0
M  V30 27 F 0.8397 11.0421 0.0 0
M  V30 28 C 2.795 10.4656 0.0 0
M  V30 29 F -4.1235 11.8568 0.0 0
M  V30 30 F -5.615 9.325 0.0 0
M  V30 31 C -6.1916 11.2803 0.0 0
M  V30 32 F 3.4592 9.325 0.0 0
M  V30 33 F 1.9803 11.8568 0.0 0
M  V30 34 C 3.9355 11.2803 0.0 0
M  V30 35 F -7.5828 12.095 0.0 0
M  V30 36 F -5.5148 12.6715 0.0 0
M  V30 37 F -7.0063 10.1397 0.0 0
M  V30 38 F 4.5998 10.1397 0.0 0
M  V30 39 F 3.1208 12.6715 0.0 0
M  V30 40 F 5.0761 12.095 0.0 0
M  V30 END ATOM
M  V30 BEGIN BOND
M  V30 1 1 1 2
M  V30 2 1 2 3
M  V30 3 1 2 4
M  V30 4 1 2 5
M  V30 5 1 5 6
M  V30 6 1 5 7
M  V30 7 1 5 8
M  V30 8 1 8 9
M  V30 9 1 8 10
M  V30 10 1 8 11
M  V30 11 1 11 12
M  V30 12 1 11 13
M  V30 13 1 11 14
M  V30 14 1 14 15
M  V30 15 1 14 16
M  V30 16 1 15 17
M  V30 17 1 15 18
M  V30 18 1 15 19
M  V30 19 1 16 20
M  V30 20 1 16 21
M  V30 21 1 16 22
M  V30 22 1 19 23
M  V30 23 1 19 24
M  V30 24 1 19 25
M  V30 25 1 22 26
M  V30 26 1 22 27
M  V30 27 1 22 28
M  V30 28 1 25 29
M  V30 29 1 25 30
M  V30 30 1 25 31
M  V30 31 1 28 32
M  V30 32 1 28 33
M  V30 33 1 28 34
M  V30 34 1 31 35
M  V30 35 1 31 36
M  V30 36 1 31 37
M  V30 37 1 34 38
M  V30 38 1 34 39
M  V30 39 1 34 40
M  V30 END BOND
M  V30 END CTAB
M  END
>  <Molecule Name>
perfluorotributylamine

>  <Molecule Name 2>
perfluorotributylamine

>  <Database>
Essential Oil Database

>  <InChI>
InChI=1S/C12F27N/c13-1(14,7(25,26)27)4(19,20)10(34,35)40(11(36,37)5(21,22)2(15,16)8(28,29)30)12(38,39)6(23,24)3(17,18)9(31,32)33

>  <InChI-Key>
RVZRBWKZFJCCIB-UHFFFAOYSA-N

>  <Smiles>
FC(C(C(F)(F)F)(F)F)(C(N(C(C(C(C(F)(F)F)(F)F)(F)F)(F)F)C(C(C(C(F)(F)F)(F)F)(F)F)(F)F)(F)F)F

>  <Molecular Formula>
C12NF27

$$$$
hexadecanol, 2-methyl
Actelion Java MolfileCreator 2.0

  0  0  0  0  0  0              0 V3000
M  V30 BEGIN CTAB
M  V30 COUNTS 18 17 0 0 0
M  V30 BEGIN ATOM
M  V30 1 O 0.0 0.0 0.0 0
M  V30 2 C 1.2697 0.9552 0.0 0
M  V30 3 C 2.5395 0.3378 0.0 0 CFG=2
M  V30 4 C 3.8093 1.293 0.0 0
M  V30 5 C 2.423 -1.1299 0.0 0
M  V30 6 C 5.079 0.664 0.0 0
M  V30 7 C 6.3488 1.6192 0.0 0
M  V30 8 C 7.6186 0.9901 0.0 0
M  V30 9 C 8.8883 1.9454 0.0 0
M  V30 10 C 10.1581 1.328 0.0 0
M  V30 11 C 11.4279 2.2832 0.0 0
M  V30 12 C 12.6977 1.6658 0.0 0
M  V30 13 C 13.9674 2.621 0.0 0
M  V30 14 C 15.2372 1.992 0.0 0
M  V30 15 C 16.507 2.9472 0.0 0
M  V30 16 C 17.7767 2.3182 0.0 0
M  V30 17 C 19.0465 3.2734 0.0 0
M  V30 18 C 20.3163 2.656 0.0 0
M  V30 END ATOM
M  V30 BEGIN BOND
M  V30 1 1 1 2
M  V30 2 1 2 3
M  V30 3 1 3 4
M  V30 4 1 3 5 CFG=3
M  V30 5 1 4 6
M  V30 6 1 6 7
M  V30 7 1 7 8
M  V30 8 1 8 9
M  V30 9 1 9 10
M  V30 10 1 10 11
M  V30 11 1 11 12
M  V30 12 1 12 13
M  V30 13 1 13 14
M  V30 14 1 14 15
M  V30 15 1 15 16
M  V30 16 1 16 17
M  V30 17 1 17 18
M  V30 END BOND
M  V30 BEGIN COLLECTION
M  V30 MDLV30/STERAC1 ATOMS=(1 3)
M  V30 END COLLECTION
M  V30 END CTAB
M  END
>  <Molecule Name>
hexadecanol, 2-methyl

>  <Molecule Name 2>
hexadecanol, 2-methyl

>  <Database>
Essential Oil Database

>  <InChI>
InChI=1S/C17H36O/c1-3-4-5-6-7-8-9-10-11-12-13-14-15-17(2)16-18/h17-18H,3-16H2,1-2H3/t17-/m0/s1

>  <InChI-Key>
FCSBKDJGLIURSH-KRWDZBQOSA-N

>  <Smiles>
CCCCCCCCCCCCCCC(C)CO

>  <Molecular Formula>
C17H36O

$$$$
isobutyl phthalate
Actelion Java MolfileCreator 2.0

  0  0  0  0  0  0              0 V3000
M  V30 BEGIN CTAB
M  V30 COUNTS 20 20 0 0 0
M  V30 BEGIN ATOM
M  V30 1 O 0.0 0.0 0.0 0
M  V30 2 C -1.431 -0.6833 0.0 0
M  V30 3 O -2.8621 0.1418 0.0 0
M  V30 4 C -1.56 -2.0757 0.0 0
M  V30 5 C -2.991 1.792 0.0 0
M  V30 6 C -0.3867 -2.7719 0.0 0
M  V30 7 C -2.991 -2.7719 0.0 0
M  V30 8 C -4.4221 2.63 0.0 0
M  V30 9 C 0.7864 -1.9338 0.0 0
M  V30 10 C -0.5157 -4.1643 0.0 0
M  V30 11 C -3.12 -4.1643 0.0 0
M  V30 12 C -4.551 4.2803 0.0 0
M  V30 13 C -5.8532 1.9467 0.0 0
M  V30 14 O 0.6575 -0.2836 0.0 0
M  V30 15 O 1.9596 -2.6172 0.0 0
M  V30 16 C -1.9467 -4.8605 0.0 0
M  V30 17 C 3.1329 -1.7791 0.0 0
M  V30 18 C 4.3061 -2.4753 0.0 0
M  V30 19 C 5.4793 -1.6373 0.0 0
M  V30 20 C 4.1772 -3.8677 0.0 0
M  V30 END ATOM
M  V30 BEGIN BOND
M  V30 1 2 1 2
M  V30 2 1 2 3
M  V30 3 1 2 4
M  V30 4 1 3 5
M  V30 5 2 4 6
M  V30 6 1 4 7
M  V30 7 1 5 8
M  V30 8 1 6 9
M  V30 9 1 6 10
M  V30 10 2 7 11
M  V30 11 1 8 12
M  V30 12 1 8 13
M  V30 13 2 9 14
M  V30 14 1 9 15
M  V30 15 2 10 16
M  V30 16 1 15 17
M  V30 17 1 17 18
M  V30 18 1 18 19
M  V30 19 1 18 20
M  V30 20 1 11 16
M  V30 END BOND
M  V30 END CTAB
M  END
>  <Molecule Name>
isobutyl phthalate

>  <Molecule Name 2>
isobutyl phthalate

>  <Database>
Essential Oil Database

>  <InChI>
InChI=1S/C16H22O4/c1-11(2)9-19-15(17)13-7-5-6-8-14(13)16(18)20-10-12(3)4/h5-8,11-12H,9-10H2,1-4H3

>  <InChI-Key>
MGWAVDBGNNKXQV-UHFFFAOYSA-N

>  <Smiles>
CC(C)COC(c(cccc1)c1C(OCC(C)C)=O)=O

>  <Molecular Formula>
C16H22O4

$$$$
1-pentacosene
Actelion Java MolfileCreator 2.0

  0  0  0  0  0  0              0 V3000
M  V30 BEGIN CTAB
M  V30 COUNTS 25 24 0 0 0
M  V30 BEGIN ATOM
M  V30 1 C 0.0 0.0 0.0 0
M  V30 2 C -1.5008 0.8676 0.0 0
M  V30 3 C 1.2663 0.8676 0.0 0
M  V30 4 C 2.5327 0.1876 0.0 0
M  V30 5 C 3.799 1.0552 0.0 0
M  V30 6 C 5.0654 0.3634 0.0 0
M  V30 7 C 6.3317 1.2311 0.0 0
M  V30 8 C 7.5981 0.5393 0.0 0
M  V30 9 C 8.8645 1.407 0.0 0
M  V30 10 C 10.1308 0.7269 0.0 0
M  V30 11 C 11.3972 1.5946 0.0 0
M  V30 12 C 12.6635 0.9145 0.0 0
M  V30 13 C 13.9299 1.7822 0.0 0
M  V30 14 C 15.1962 1.0904 0.0 0
M  V30 15 C 16.4626 1.9581 0.0 0
M  V30 16 C 17.729 1.2663 0.0 0
M  V30 17 C 18.9953 2.134 0.0 0
M  V30 18 C 20.2617 1.4539 0.0 0
M  V30 19 C 21.528 2.3216 0.0 0
M  V30 20 C 22.7944 1.6415 0.0 0
M  V30 21 C 24.0607 2.5092 0.0 0
M  V30 22 C 25.3271 1.8174 0.0 0
M  V30 23 C 26.5935 2.6851 0.0 0
M  V30 24 C 27.8598 1.9933 0.0 0
M  V30 25 C 29.1262 2.861 0.0 0
M  V30 END ATOM
M  V30 BEGIN BOND
M  V30 1 2 1 2
M  V30 2 1 1 3
M  V30 3 1 3 4
M  V30 4 1 4 5
M  V30 5 1 5 6
M  V30 6 1 6 7
M  V30 7 1 7 8
M  V30 8 1 8 9
M  V30 9 1 9 10
M  V30 10 1 10 11
M  V30 11 1 11 12
M  V30 12 1 12 13
M  V30 13 1 13 14
M  V30 14 1 14 15
M  V30 15 1 15 16
M  V30 16 1 16 17
M  V30 17 1 17 18
M  V30 18 1 18 19
M  V30 19 1 19 20
M  V30 20 1 20 21
M  V30 21 1 21 22
M  V30 22 1 22 23
M  V30 23 1 23 24
M  V30 24 1 24 25
M  V30 END BOND
M  V30 END CTAB
M  END
>  <Molecule Name>
1-pentacosene

>  <Molecule Name 2>
1-pentacosene

>  <Database>
Essential Oil Database

>  <InChI>
InChI=1S/C25H50/c1-3-5-7-9-11-13-15-17-19-21-23-25-24-22-20-18-16-14-12-10-8-6-4-2/h3H,1,4-25H2,2H3

>  <InChI-Key>
BDWBGSCECOPTTH-UHFFFAOYSA-N

>  <Smiles>
CCCCCCCCCCCCCCCCCCCCCCCC=C

>  <Molecular Formula>
C25H50

$$$$
1-tricosene
Actelion Java MolfileCreator 2.0

  0  0  0  0  0  0              0 V3000
M  V30 BEGIN CTAB
M  V30 COUNTS 23 22 0 0 0
M  V30 BEGIN ATOM
M  V30 1 C 0.0 0.0 0.0 0
M  V30 2 C -1.4988 0.8665 0.0 0
M  V30 3 C 1.2646 0.8665 0.0 0
M  V30 4 C 2.5293 0.1756 0.0 0
M  V30 5 C 3.7939 1.0421 0.0 0
M  V30 6 C 5.0586 0.3512 0.0 0
M  V30 7 C 6.3233 1.2178 0.0 0
M  V30 8 C 7.5879 0.5269 0.0 0
M  V30 9 C 8.8526 1.3934 0.0 0
M  V30 10 C 10.1172 0.7025 0.0 0
M  V30 11 C 11.3819 1.5691 0.0 0
M  V30 12 C 12.6466 0.8782 0.0 0
M  V30 13 C 13.9112 1.7447 0.0 0
M  V30 14 C 15.1759 1.0538 0.0 0
M  V30 15 C 16.4406 1.9204 0.0 0
M  V30 16 C 17.7052 1.2412 0.0 0
M  V30 17 C 18.9699 2.1077 0.0 0
M  V30 18 C 20.2345 1.4168 0.0 0
M  V30 19 C 21.4992 2.2834 0.0 0
M  V30 20 C 22.7639 1.5925 0.0 0
M  V30 21 C 24.0285 2.459 0.0 0
M  V30 22 C 25.2932 1.7681 0.0 0
M  V30 23 C 26.5579 2.6347 0.0 0
M  V30 END ATOM
M  V30 BEGIN BOND
M  V30 1 2 1 2
M  V30 2 1 1 3
M  V30 3 1 3 4
M  V30 4 1 4 5
M  V30 5 1 5 6
M  V30 6 1 6 7
M  V30 7 1 7 8
M  V30 8 1 8 9
M  V30 9 1 9 10
M  V30 10 1 10 11
M  V30 11 1 11 12
M  V30 12 1 12 13
M  V30 13 1 13 14
M  V30 14 1 14 15
M  V30 15 1 15 16
M  V30 16 1 16 17
M  V30 17 1 17 18
M  V30 18 1 18 19
M  V30 19 1 19 20
M  V30 20 1 20 21
M  V30 21 1 21 22
M  V30 22 1 22 23
M  V30 END BOND
M  V30 END CTAB
M  END
>  <Molecule Name>
1-tricosene

>  <Molecule Name 2>
1-tricosene

>  <Database>
Essential Oil Database

>  <InChI>
InChI=1S/C23H46/c1-3-5-7-9-11-13-15-17-19-21-23-22-20-18-16-14-12-10-8-6-4-2/h3H,1,4-23H2,2H3

>  <InChI-Key>
SJDSOBWGZRPKSB-UHFFFAOYSA-N

>  <Smiles>
CCCCCCCCCCCCCCCCCCCCCC=C

>  <Molecular Formula>
C23H46

$$$$
9-heptacosene
Actelion Java MolfileCreator 2.0

  0  0  0  0  0  0              0 V3000
M  V30 BEGIN CTAB
M  V30 COUNTS 27 26 0 0 0
M  V30 BEGIN ATOM
M  V30 1 C 0.0 0.0 0.0 0
M  V30 2 C -1.4426 0.834 0.0 0
M  V30 3 C 1.2172 0.834 0.0 0
M  V30 4 C -2.8852 0.1803 0.0 0
M  V30 5 C 2.4344 0.1803 0.0 0
M  V30 6 C -4.3278 1.0143 0.0 0
M  V30 7 C 3.6516 1.0143 0.0 0
M  V30 8 C -5.7705 0.3606 0.0 0
M  V30 9 C 4.8688 0.3606 0.0 0
M  V30 10 C -7.2131 1.1946 0.0 0
M  V30 11 C 6.086 1.1946 0.0 0
M  V30 12 C -8.6557 0.5409 0.0 0
M  V30 13 C 7.3032 0.5409 0.0 0
M  V30 14 C -10.0983 1.375 0.0 0
M  V30 15 C 8.5205 1.375 0.0 0
M  V30 16 C -11.541 0.7213 0.0 0
M  V30 17 C 9.7377 0.7213 0.0 0
M  V30 18 C -12.9836 1.5553 0.0 0
M  V30 19 C 10.9549 1.5553 0.0 0
M  V30 20 C 12.1721 0.9016 0.0 0
M  V30 21 C 13.3893 1.7356 0.0 0
M  V30 22 C 14.6065 1.0819 0.0 0
M  V30 23 C 15.8238 1.9159 0.0 0
M  V30 24 C 17.041 1.2622 0.0 0
M  V30 25 C 18.2582 2.0963 0.0 0
M  V30 26 C 19.4754 1.4426 0.0 0
M  V30 27 C 20.6926 2.2766 0.0 0
M  V30 END ATOM
M  V30 BEGIN BOND
M  V30 1 2 1 2
M  V30 2 1 1 3
M  V30 3 1 2 4
M  V30 4 1 3 5
M  V30 5 1 4 6
M  V30 6 1 5 7
M  V30 7 1 6 8
M  V30 8 1 7 9
M  V30 9 1 8 10
M  V30 10 1 9 11
M  V30 11 1 10 12
M  V30 12 1 11 13
M  V30 13 1 12 14
M  V30 14 1 13 15
M  V30 15 1 14 16
M  V30 16 1 15 17
M  V30 17 1 16 18
M  V30 18 1 17 19
M  V30 19 1 19 20
M  V30 20 1 20 21
M  V30 21 1 21 22
M  V30 22 1 22 23
M  V30 23 1 23 24
M  V30 24 1 24 25
M  V30 25 1 25 26
M  V30 26 1 26 27
M  V30 END BOND
M  V30 END CTAB
M  END
>  <Molecule Name>
9-heptacosene

>  <Molecule Name 2>
9-heptacosene

>  <Database>
Essential Oil Database

>  <InChI>
InChI=1S/C27H54/c1-3-5-7-9-11-13-15-17-19-21-23-25-27-26-24-22-20-18-16-14-12-10-8-6-4-2/h17,19H,3-16,18,20-27H2,1-2H3/b19-17+

>  <InChI-Key>
WWHBGRQNRIORRZ-HTXNQAPBSA-N

>  <Smiles>
CCCCCCCCCCCCCCCCC/C=C/CCCCCCCC

>  <Molecular Formula>
C27H54

$$$$
9-hexacosene
Actelion Java MolfileCreator 2.0

  0  0  0  0  0  0              0 V3000
M  V30 BEGIN CTAB
M  V30 COUNTS 26 25 0 0 0
M  V30 BEGIN ATOM
M  V30 1 C 0.0 0.0 0.0 0
M  V30 2 C -0.1297 1.6612 0.0 0
M  V30 3 C 1.181 -0.6878 0.0 0
M  V30 4 C -1.5703 2.5047 0.0 0
M  V30 5 C 2.362 0.1427 0.0 0
M  V30 6 C -1.7001 4.1659 0.0 0
M  V30 7 C 3.543 -0.545 0.0 0
M  V30 8 C -3.1407 5.0095 0.0 0
M  V30 9 C 4.724 0.2855 0.0 0
M  V30 10 C -3.2704 6.6707 0.0 0
M  V30 11 C 5.905 -0.4023 0.0 0
M  V30 12 C -4.711 7.5143 0.0 0
M  V30 13 C 7.086 0.4282 0.0 0
M  V30 14 C -4.8408 9.1755 0.0 0
M  V30 15 C 8.267 -0.2595 0.0 0
M  V30 16 C -6.2814 10.0321 0.0 0
M  V30 17 C 9.448 0.571 0.0 0
M  V30 18 C -6.4112 11.6933 0.0 0
M  V30 19 C 10.6291 -0.1168 0.0 0
M  V30 20 C 11.8101 0.7137 0.0 0
M  V30 21 C 12.9911 0.0259 0.0 0
M  V30 22 C 14.1721 0.8565 0.0 0
M  V30 23 C 15.3531 0.1687 0.0 0
M  V30 24 C 16.5341 0.9993 0.0 0
M  V30 25 C 17.7151 0.3114 0.0 0
M  V30 26 C 18.8961 1.142 0.0 0
M  V30 END ATOM
M  V30 BEGIN BOND
M  V30 1 2 1 2
M  V30 2 1 1 3
M  V30 3 1 2 4
M  V30 4 1 3 5
M  V30 5 1 4 6
M  V30 6 1 5 7
M  V30 7 1 6 8
M  V30 8 1 7 9
M  V30 9 1 8 10
M  V30 10 1 9 11
M  V30 11 1 10 12
M  V30 12 1 11 13
M  V30 13 1 12 14
M  V30 14 1 13 15
M  V30 15 1 14 16
M  V30 16 1 15 17
M  V30 17 1 16 18
M  V30 18 1 17 19
M  V30 19 1 19 20
M  V30 20 1 20 21
M  V30 21 1 21 22
M  V30 22 1 22 23
M  V30 23 1 23 24
M  V30 24 1 24 25
M  V30 25 1 25 26
M  V30 END BOND
M  V30 END CTAB
M  END
>  <Molecule Name>
9-hexacosene

>  <Molecule Name 2>
9-hexacosene

>  <Database>
Essential Oil Database

>  <InChI>
InChI=1S/C26H52/c1-3-5-7-9-11-13-15-17-19-21-23-25-26-24-22-20-18-16-14-12-10-8-6-4-2/h17,19H,3-16,18,20-26H2,1-2H3/b19-17+

>  <InChI-Key>
HGTCGIXAQAYYBS-HTXNQAPBSA-N

>  <Smiles>
CCCCCCCCCCCCCCCC/C=C/CCCCCCCC

>  <Molecular Formula>
C26H52

$$$$
9-nonacosene
Actelion Java MolfileCreator 2.0

  0  0  0  0  0  0              0 V3000
M  V30 BEGIN CTAB
M  V30 COUNTS 29 28 0 0 0
M  V30 BEGIN ATOM
M  V30 1 C 0.0 0.0 0.0 0
M  V30 2 C -1.4475 0.8368 0.0 0
M  V30 3 C 1.2213 0.8368 0.0 0
M  V30 4 C -2.895 0.1809 0.0 0
M  V30 5 C 2.4427 0.1809 0.0 0
M  V30 6 C -4.3426 1.0178 0.0 0
M  V30 7 C 3.6641 1.0178 0.0 0
M  V30 8 C -5.7901 0.3618 0.0 0
M  V30 9 C 4.8854 0.3618 0.0 0
M  V30 10 C -7.2377 1.1987 0.0 0
M  V30 11 C 6.1068 1.1987 0.0 0
M  V30 12 C -8.6852 0.5428 0.0 0
M  V30 13 C 7.3282 0.5428 0.0 0
M  V30 14 C -10.1328 1.3796 0.0 0
M  V30 15 C 8.5495 1.3796 0.0 0
M  V30 16 C -11.5803 0.7237 0.0 0
M  V30 17 C 9.7709 0.7237 0.0 0
M  V30 18 C -13.0279 1.5606 0.0 0
M  V30 19 C 10.9923 1.5606 0.0 0
M  V30 20 C 12.2136 0.9047 0.0 0
M  V30 21 C 13.435 1.7415 0.0 0
M  V30 22 C 14.6564 1.0856 0.0 0
M  V30 23 C 15.8778 1.9225 0.0 0
M  V30 24 C 17.0991 1.2666 0.0 0
M  V30 25 C 18.3205 2.1034 0.0 0
M  V30 26 C 19.5419 1.4475 0.0 0
M  V30 27 C 20.7632 2.2844 0.0 0
M  V30 28 C 21.9846 1.6284 0.0 0
M  V30 29 C 23.206 2.4653 0.0 0
M  V30 END ATOM
M  V30 BEGIN BOND
M  V30 1 2 1 2
M  V30 2 1 1 3
M  V30 3 1 2 4
M  V30 4 1 3 5
M  V30 5 1 4 6
M  V30 6 1 5 7
M  V30 7 1 6 8
M  V30 8 1 7 9
M  V30 9 1 8 10
M  V30 10 1 9 11
M  V30 11 1 10 12
M  V30 12 1 11 13
M  V30 13 1 12 14
M  V30 14 1 13 15
M  V30 15 1 14 16
M  V30 16 1 15 17
M  V30 17 1 16 18
M  V30 18 1 17 19
M  V30 19 1 19 20
M  V30 20 1 20 21
M  V30 21 1 21 22
M  V30 22 1 22 23
M  V30 23 1 23 24
M  V30 24 1 24 25
M  V30 25 1 25 26
M  V30 26 1 26 27
M  V30 27 1 27 28
M  V30 28 1 28 29
M  V30 END BOND
M  V30 END CTAB
M  END
>  <Molecule Name>
9-nonacosene

>  <Molecule Name 2>
9-nonacosene

>  <Database>
Essential Oil Database

>  <InChI>
InChI=1S/C29H58/c1-3-5-7-9-11-13-15-17-19-21-23-25-27-29-28-26-24-22-20-18-16-14-12-10-8-6-4-2/h17,19H,3-16,18,20-29H2,1-2H3/b19-17+

>  <InChI-Key>
LPRICKRYSNFONS-HTXNQAPBSA-N

>  <Smiles>
CCCCCCCCCCCCCCCCCCC/C=C/CCCCCCCC

>  <Molecular Formula>
C29H58

$$$$
9-pentacosene
Actelion Java MolfileCreator 2.0

  0  0  0  0  0  0              0 V3000
M  V30 BEGIN CTAB
M  V30 COUNTS 25 24 0 0 0
M  V30 BEGIN ATOM
M  V30 1 C 0.0 0.0 0.0 0
M  V30 2 C -1.436 0.8302 0.0 0
M  V30 3 C 1.2117 0.8302 0.0 0
M  V30 4 C -2.8721 0.1795 0.0 0
M  V30 5 C 2.4234 0.1795 0.0 0
M  V30 6 C -4.3082 1.0097 0.0 0
M  V30 7 C 3.6351 1.0097 0.0 0
M  V30 8 C -5.7443 0.359 0.0 0
M  V30 9 C 4.8468 0.359 0.0 0
M  V30 10 C -7.1804 1.1892 0.0 0
M  V30 11 C 6.0585 1.1892 0.0 0
M  V30 12 C -8.6165 0.5385 0.0 0
M  V30 13 C 7.2702 0.5385 0.0 0
M  V30 14 C -10.0526 1.3687 0.0 0
M  V30 15 C 8.4819 1.3687 0.0 0
M  V30 16 C -11.4887 0.7068 0.0 0
M  V30 17 C 9.6936 0.7068 0.0 0
M  V30 18 C -12.9248 1.537 0.0 0
M  V30 19 C 10.9053 1.537 0.0 0
M  V30 20 C 12.117 0.8863 0.0 0
M  V30 21 C 13.3287 1.7165 0.0 0
M  V30 22 C 14.5405 1.0546 0.0 0
M  V30 23 C 15.7522 1.8848 0.0 0
M  V30 24 C 16.9639 1.2229 0.0 0
M  V30 25 C 18.1756 2.0531 0.0 0
M  V30 END ATOM
M  V30 BEGIN BOND
M  V30 1 2 1 2
M  V30 2 1 1 3
M  V30 3 1 2 4
M  V30 4 1 3 5
M  V30 5 1 4 6
M  V30 6 1 5 7
M  V30 7 1 6 8
M  V30 8 1 7 9
M  V30 9 1 8 10
M  V30 10 1 9 11
M  V30 11 1 10 12
M  V30 12 1 11 13
M  V30 13 1 12 14
M  V30 14 1 13 15
M  V30 15 1 14 16
M  V30 16 1 15 17
M  V30 17 1 16 18
M  V30 18 1 17 19
M  V30 19 1 19 20
M  V30 20 1 20 21
M  V30 21 1 21 22
M  V30 22 1 22 23
M  V30 23 1 23 24
M  V30 24 1 24 25
M  V30 END BOND
M  V30 END CTAB
M  END
>  <Molecule Name>
9-pentacosene

>  <Molecule Name 2>
9-pentacosene

>  <Database>
Essential Oil Database

>  <InChI>
InChI=1S/C25H50/c1-3-5-7-9-11-13-15-17-19-21-23-25-24-22-20-18-16-14-12-10-8-6-4-2/h17,19H,3-16,18,20-25H2,1-2H3/b19-17+

>  <InChI-Key>
YJTCMKZGFBOKQS-HTXNQAPBSA-N

>  <Smiles>
CCCCCCCCCCCCCCC/C=C/CCCCCCCC

>  <Molecular Formula>
C25H50

$$$$
9-tetracosene
Actelion Java MolfileCreator 2.0

  0  0  0  0  0  0              0 V3000
M  V30 BEGIN CTAB
M  V30 COUNTS 24 23 0 0 0
M  V30 BEGIN ATOM
M  V30 1 C 0.0 0.0 0.0 0
M  V30 2 C -0.129 1.652 0.0 0
M  V30 3 C 1.1745 -0.684 0.0 0
M  V30 4 C -1.5617 2.491 0.0 0
M  V30 5 C 2.349 0.1419 0.0 0
M  V30 6 C -1.6908 4.1431 0.0 0
M  V30 7 C 3.5235 -0.542 0.0 0
M  V30 8 C -3.1234 4.982 0.0 0
M  V30 9 C 4.6981 0.2839 0.0 0
M  V30 10 C -3.2525 6.6341 0.0 0
M  V30 11 C 5.8726 -0.4001 0.0 0
M  V30 12 C -4.6852 7.4731 0.0 0
M  V30 13 C 7.0471 0.4259 0.0 0
M  V30 14 C -4.8142 9.1252 0.0 0
M  V30 15 C 8.2217 -0.2581 0.0 0
M  V30 16 C -6.2469 9.9641 0.0 0
M  V30 17 C 9.3962 0.5679 0.0 0
M  V30 18 C -6.376 11.6162 0.0 0
M  V30 19 C 10.5707 -0.1161 0.0 0
M  V30 20 C 11.7453 0.7098 0.0 0
M  V30 21 C 12.9198 0.0258 0.0 0
M  V30 22 C 14.0943 0.8518 0.0 0
M  V30 23 C 15.2689 0.1677 0.0 0
M  V30 24 C 16.4434 1.0067 0.0 0
M  V30 END ATOM
M  V30 BEGIN BOND
M  V30 1 2 1 2
M  V30 2 1 1 3
M  V30 3 1 2 4
M  V30 4 1 3 5
M  V30 5 1 4 6
M  V30 6 1 5 7
M  V30 7 1 6 8
M  V30 8 1 7 9
M  V30 9 1 8 10
M  V30 10 1 9 11
M  V30 11 1 10 12
M  V30 12 1 11 13
M  V30 13 1 12 14
M  V30 14 1 13 15
M  V30 15 1 14 16
M  V30 16 1 15 17
M  V30 17 1 16 18
M  V30 18 1 17 19
M  V30 19 1 19 20
M  V30 20 1 20 21
M  V30 21 1 21 22
M  V30 22 1 22 23
M  V30 23 1 23 24
M  V30 END BOND
M  V30 END CTAB
M  END
>  <Molecule Name>
9-tetracosene

>  <Molecule Name 2>
9-tetracosene

>  <Database>
Essential Oil Database

>  <InChI>
InChI=1S/C24H48/c1-3-5-7-9-11-13-15-17-19-21-23-24-22-20-18-16-14-12-10-8-6-4-2/h17,19H,3-16,18,20-24H2,1-2H3/b19-17+

>  <InChI-Key>
TUICHZLZOYQXJO-HTXNQAPBSA-N

>  <Smiles>
CCCCCCCCCCCCCC/C=C/CCCCCCCC

>  <Molecular Formula>
C24H48

$$$$
heneicosanal
Actelion Java MolfileCreator 2.0

  0  0  0  0  0  0              0 V3000
M  V30 BEGIN CTAB
M  V30 COUNTS 22 21 0 0 0
M  V30 BEGIN ATOM
M  V30 1 O 0.0 0.0 0.0 0
M  V30 2 C 1.253 0.9149 0.0 0
M  V30 3 C 2.5061 0.1989 0.0 0
M  V30 4 C 3.7592 1.1138 0.0 0
M  V30 5 C 5.0123 0.3978 0.0 0
M  V30 6 C 6.2654 1.3127 0.0 0
M  V30 7 C 7.5185 0.5967 0.0 0
M  V30 8 C 8.7716 1.5116 0.0 0
M  V30 9 C 10.0247 0.7956 0.0 0
M  V30 10 C 11.2778 1.7105 0.0 0
M  V30 11 C 12.5309 0.9945 0.0 0
M  V30 12 C 13.784 1.9094 0.0 0
M  V30 13 C 15.0371 1.1934 0.0 0
M  V30 14 C 16.2902 2.1083 0.0 0
M  V30 15 C 17.5433 1.3923 0.0 0
M  V30 16 C 18.7964 2.3072 0.0 0
M  V30 17 C 20.0495 1.5912 0.0 0
M  V30 18 C 21.3026 2.5061 0.0 0
M  V30 19 C 22.5557 1.7901 0.0 0
M  V30 20 C 23.8088 2.7051 0.0 0
M  V30 21 C 25.0619 1.989 0.0 0
M  V30 22 C 26.315 2.904 0.0 0
M  V30 END ATOM
M  V30 BEGIN BOND
M  V30 1 2 1 2
M  V30 2 1 2 3
M  V30 3 1 3 4
M  V30 4 1 4 5
M  V30 5 1 5 6
M  V30 6 1 6 7
M  V30 7 1 7 8
M  V30 8 1 8 9
M  V30 9 1 9 10
M  V30 10 1 10 11
M  V30 11 1 11 12
M  V30 12 1 12 13
M  V30 13 1 13 14
M  V30 14 1 14 15
M  V30 15 1 15 16
M  V30 16 1 16 17
M  V30 17 1 17 18
M  V30 18 1 18 19
M  V30 19 1 19 20
M  V30 20 1 20 21
M  V30 21 1 21 22
M  V30 END BOND
M  V30 END CTAB
M  END
>  <Molecule Name>
heneicosanal

>  <Molecule Name 2>
heneicosanal

>  <Database>
Essential Oil Database

>  <InChI>
InChI=1S/C21H42O/c1-2-3-4-5-6-7-8-9-10-11-12-13-14-15-16-17-18-19-20-21-22/h21H,2-20H2,1H3

>  <InChI-Key>
FJZCFGKQFDPNHS-UHFFFAOYSA-N

>  <Smiles>
CCCCCCCCCCCCCCCCCCCCC=O

>  <Molecular Formula>
C21H42O

$$$$
heptacosene
Actelion Java MolfileCreator 2.0

  0  0  0  0  0  0              0 V3000
M  V30 BEGIN CTAB
M  V30 COUNTS 27 26 0 0 0
M  V30 BEGIN ATOM
M  V30 1 C 0.0 0.0 0.0 0
M  V30 2 C -1.501 0.8678 0.0 0
M  V30 3 C 1.2665 0.8678 0.0 0
M  V30 4 C 2.533 0.1759 0.0 0
M  V30 5 C 3.7995 1.0437 0.0 0
M  V30 6 C 5.066 0.3518 0.0 0
M  V30 7 C 6.3326 1.2196 0.0 0
M  V30 8 C 7.5991 0.5277 0.0 0
M  V30 9 C 8.8656 1.3955 0.0 0
M  V30 10 C 10.1321 0.7036 0.0 0
M  V30 11 C 11.3987 1.5714 0.0 0
M  V30 12 C 12.6652 0.8912 0.0 0
M  V30 13 C 13.9317 1.759 0.0 0
M  V30 14 C 15.1982 1.0671 0.0 0
M  V30 15 C 16.4648 1.9349 0.0 0
M  V30 16 C 17.7313 1.243 0.0 0
M  V30 17 C 18.9978 2.1108 0.0 0
M  V30 18 C 20.2643 1.4189 0.0 0
M  V30 19 C 21.5309 2.2867 0.0 0
M  V30 20 C 22.7974 1.5948 0.0 0
M  V30 21 C 24.0639 2.4626 0.0 0
M  V30 22 C 25.3304 1.7825 0.0 0
M  V30 23 C 26.597 2.6503 0.0 0
M  V30 24 C 27.8635 1.9584 0.0 0
M  V30 25 C 29.13 2.8262 0.0 0
M  V30 26 C 30.3965 2.1343 0.0 0
M  V30 27 C 31.6631 3.0021 0.0 0
M  V30 END ATOM
M  V30 BEGIN BOND
M  V30 1 2 1 2
M  V30 2 1 1 3
M  V30 3 1 3 4
M  V30 4 1 4 5
M  V30 5 1 5 6
M  V30 6 1 6 7
M  V30 7 1 7 8
M  V30 8 1 8 9
M  V30 9 1 9 10
M  V30 10 1 10 11
M  V30 11 1 11 12
M  V30 12 1 12 13
M  V30 13 1 13 14
M  V30 14 1 14 15
M  V30 15 1 15 16
M  V30 16 1 16 17
M  V30 17 1 17 18
M  V30 18 1 18 19
M  V30 19 1 19 20
M  V30 20 1 20 21
M  V30 21 1 21 22
M  V30 22 1 22 23
M  V30 23 1 23 24
M  V30 24 1 24 25
M  V30 25 1 25 26
M  V30 26 1 26 27
M  V30 END BOND
M  V30 END CTAB
M  END
>  <Molecule Name>
heptacosene

>  <Molecule Name 2>
heptacosene

>  <Database>
Essential Oil Database

>  <InChI>
InChI=1S/C27H54/c1-3-5-7-9-11-13-15-17-19-21-23-25-27-26-24-22-20-18-16-14-12-10-8-6-4-2/h3H,1,4-27H2,2H3

>  <InChI-Key>
YYLACZAXCCJCJO-UHFFFAOYSA-N

>  <Smiles>
CCCCCCCCCCCCCCCCCCCCCCCCCC=C

>  <Molecular Formula>
C27H54

$$$$
heptadecanol
Actelion Java MolfileCreator 2.0

  0  0  0  0  0  0              0 V3000
M  V30 BEGIN CTAB
M  V30 COUNTS 18 17 0 0 0
M  V30 BEGIN ATOM
M  V30 1 O 0.0 0.0 0.0 0
M  V30 2 C 1.2525 0.9145 0.0 0
M  V30 3 C 2.5051 0.1988 0.0 0
M  V30 4 C 3.7577 1.1134 0.0 0
M  V30 5 C 5.0103 0.3976 0.0 0
M  V30 6 C 6.2629 1.3122 0.0 0
M  V30 7 C 7.5155 0.5964 0.0 0
M  V30 8 C 8.7681 1.511 0.0 0
M  V30 9 C 10.0207 0.7952 0.0 0
M  V30 10 C 11.2733 1.7098 0.0 0
M  V30 11 C 12.5259 0.9941 0.0 0
M  V30 12 C 13.7785 1.9087 0.0 0
M  V30 13 C 15.0311 1.1929 0.0 0
M  V30 14 C 16.2836 2.1075 0.0 0
M  V30 15 C 17.5362 1.3917 0.0 0
M  V30 16 C 18.7888 2.3063 0.0 0
M  V30 17 C 20.0414 1.5905 0.0 0
M  V30 18 C 21.294 2.5051 0.0 0
M  V30 END ATOM
M  V30 BEGIN BOND
M  V30 1 1 1 2
M  V30 2 1 2 3
M  V30 3 1 3 4
M  V30 4 1 4 5
M  V30 5 1 5 6
M  V30 6 1 6 7
M  V30 7 1 7 8
M  V30 8 1 8 9
M  V30 9 1 9 10
M  V30 10 1 10 11
M  V30 11 1 11 12
M  V30 12 1 12 13
M  V30 13 1 13 14
M  V30 14 1 14 15
M  V30 15 1 15 16
M  V30 16 1 16 17
M  V30 17 1 17 18
M  V30 END BOND
M  V30 END CTAB
M  END
>  <Molecule Name>
heptadecanol

>  <Molecule Name 2>
heptadecanol

>  <Database>
Essential Oil Database

>  <InChI>
InChI=1S/C17H36O/c1-2-3-4-5-6-7-8-9-10-11-12-13-14-15-16-17-18/h18H,2-17H2,1H3

>  <InChI-Key>
GOQYKNQRPGWPLP-UHFFFAOYSA-N

>  <Smiles>
CCCCCCCCCCCCCCCCCO

>  <Molecular Formula>
C17H36O

$$$$
hexacosene
Actelion Java MolfileCreator 2.0

  0  0  0  0  0  0              0 V3000
M  V30 BEGIN CTAB
M  V30 COUNTS 26 25 0 0 0
M  V30 BEGIN ATOM
M  V30 1 C 0.0 0.0 0.0 0
M  V30 2 C -1.5075 -0.683 0.0 0
M  V30 3 C 1.2719 -0.683 0.0 0
M  V30 4 C 2.5439 0.1884 0.0 0
M  V30 5 C 3.8158 -0.4946 0.0 0
M  V30 6 C 5.0878 0.3768 0.0 0
M  V30 7 C 6.3598 -0.3062 0.0 0
M  V30 8 C 7.6317 0.5653 0.0 0
M  V30 9 C 8.9037 -0.1177 0.0 0
M  V30 10 C 10.1756 0.7537 0.0 0
M  V30 11 C 11.4476 0.0706 0.0 0
M  V30 12 C 12.7196 0.9421 0.0 0
M  V30 13 C 13.9915 0.2591 0.0 0
M  V30 14 C 15.2635 1.1306 0.0 0
M  V30 15 C 16.5354 0.4475 0.0 0
M  V30 16 C 17.8074 1.319 0.0 0
M  V30 17 C 19.0794 0.6242 0.0 0
M  V30 18 C 20.3513 1.4957 0.0 0
M  V30 19 C 21.6233 0.8008 0.0 0
M  V30 20 C 22.8953 1.6723 0.0 0
M  V30 21 C 24.1672 0.9893 0.0 0
M  V30 22 C 25.4392 1.8608 0.0 0
M  V30 23 C 26.7111 1.1777 0.0 0
M  V30 24 C 27.9831 2.0492 0.0 0
M  V30 25 C 29.2551 1.3544 0.0 0
M  V30 26 C 30.527 2.2259 0.0 0
M  V30 END ATOM
M  V30 BEGIN BOND
M  V30 1 2 1 2
M  V30 2 1 1 3
M  V30 3 1 3 4
M  V30 4 1 4 5
M  V30 5 1 5 6
M  V30 6 1 6 7
M  V30 7 1 7 8
M  V30 8 1 8 9
M  V30 9 1 9 10
M  V30 10 1 10 11
M  V30 11 1 11 12
M  V30 12 1 12 13
M  V30 13 1 13 14
M  V30 14 1 14 15
M  V30 15 1 15 16
M  V30 16 1 16 17
M  V30 17 1 17 18
M  V30 18 1 18 19
M  V30 19 1 19 20
M  V30 20 1 20 21
M  V30 21 1 21 22
M  V30 22 1 22 23
M  V30 23 1 23 24
M  V30 24 1 24 25
M  V30 25 1 25 26
M  V30 END BOND
M  V30 END CTAB
M  END
>  <Molecule Name>
hexacosene

>  <Molecule Name 2>
hexacosene

>  <Database>
Essential Oil Database

>  <InChI>
InChI=1S/C26H52/c1-3-5-7-9-11-13-15-17-19-21-23-25-26-24-22-20-18-16-14-12-10-8-6-4-2/h3H,1,4-26H2,2H3

>  <InChI-Key>
OMXANELYEWRDAW-UHFFFAOYSA-N

>  <Smiles>
CCCCCCCCCCCCCCCCCCCCCCCCC=C

>  <Molecular Formula>
C26H52

$$$$
octacosene
Actelion Java MolfileCreator 2.0

  0  0  0  0  0  0              0 V3000
M  V30 BEGIN CTAB
M  V30 COUNTS 28 27 0 0 0
M  V30 BEGIN ATOM
M  V30 1 C 0.0 0.0 0.0 0
M  V30 2 C -1.5074 -0.683 0.0 0
M  V30 3 C 1.2718 -0.683 0.0 0
M  V30 4 C 2.5437 0.1884 0.0 0
M  V30 5 C 3.8156 -0.4946 0.0 0
M  V30 6 C 5.0875 0.3768 0.0 0
M  V30 7 C 6.3594 -0.3061 0.0 0
M  V30 8 C 7.6312 0.5652 0.0 0
M  V30 9 C 8.9031 -0.1177 0.0 0
M  V30 10 C 10.175 0.7537 0.0 0
M  V30 11 C 11.4469 0.0706 0.0 0
M  V30 12 C 12.7188 0.9421 0.0 0
M  V30 13 C 13.9907 0.259 0.0 0
M  V30 14 C 15.2625 1.1305 0.0 0
M  V30 15 C 16.5344 0.4475 0.0 0
M  V30 16 C 17.8063 1.3189 0.0 0
M  V30 17 C 19.0782 0.6241 0.0 0
M  V30 18 C 20.3501 1.4956 0.0 0
M  V30 19 C 21.622 0.8008 0.0 0
M  V30 20 C 22.8938 1.6722 0.0 0
M  V30 21 C 24.1657 0.9774 0.0 0
M  V30 22 C 25.4376 1.8489 0.0 0
M  V30 23 C 26.7095 1.1541 0.0 0
M  V30 24 C 27.9814 2.0255 0.0 0
M  V30 25 C 29.2533 1.3307 0.0 0
M  V30 26 C 30.5251 2.2022 0.0 0
M  V30 27 C 31.797 1.5074 0.0 0
M  V30 28 C 33.0689 2.3788 0.0 0
M  V30 END ATOM
M  V30 BEGIN BOND
M  V30 1 2 1 2
M  V30 2 1 1 3
M  V30 3 1 3 4
M  V30 4 1 4 5
M  V30 5 1 5 6
M  V30 6 1 6 7
M  V30 7 1 7 8
M  V30 8 1 8 9
M  V30 9 1 9 10
M  V30 10 1 10 11
M  V30 11 1 11 12
M  V30 12 1 12 13
M  V30 13 1 13 14
M  V30 14 1 14 15
M  V30 15 1 15 16
M  V30 16 1 16 17
M  V30 17 1 17 18
M  V30 18 1 18 19
M  V30 19 1 19 20
M  V30 20 1 20 21
M  V30 21 1 21 22
M  V30 22 1 22 23
M  V30 23 1 23 24
M  V30 24 1 24 25
M  V30 25 1 25 26
M  V30 26 1 26 27
M  V30 27 1 27 28
M  V30 END BOND
M  V30 END CTAB
M  END
>  <Molecule Name>
octacosene

>  <Molecule Name 2>
octacosene

>  <Database>
Essential Oil Database

>  <InChI>
InChI=1S/C28H56/c1-3-5-7-9-11-13-15-17-19-21-23-25-27-28-26-24-22-20-18-16-14-12-10-8-6-4-2/h3H,1,4-28H2,2H3

>  <InChI-Key>
QEXZDYLACYKGOM-UHFFFAOYSA-N

>  <Smiles>
CCCCCCCCCCCCCCCCCCCCCCCCCCC=C

>  <Molecular Formula>
C28H56

$$$$
tetracosene
Actelion Java MolfileCreator 2.0

  0  0  0  0  0  0              0 V3000
M  V30 BEGIN CTAB
M  V30 COUNTS 24 23 0 0 0
M  V30 BEGIN ATOM
M  V30 1 C 0.0 0.0 0.0 0
M  V30 2 C -1.5066 -0.6944 0.0 0
M  V30 3 C 1.2712 -0.6944 0.0 0
M  V30 4 C 2.5425 0.1765 0.0 0
M  V30 5 C 3.8137 -0.5061 0.0 0
M  V30 6 C 5.085 0.3648 0.0 0
M  V30 7 C 6.3562 -0.3178 0.0 0
M  V30 8 C 7.6275 0.5532 0.0 0
M  V30 9 C 8.8987 -0.1294 0.0 0
M  V30 10 C 10.17 0.7415 0.0 0
M  V30 11 C 11.4412 0.0588 0.0 0
M  V30 12 C 12.7125 0.9298 0.0 0
M  V30 13 C 13.9837 0.2471 0.0 0
M  V30 14 C 15.255 1.1182 0.0 0
M  V30 15 C 16.5262 0.4355 0.0 0
M  V30 16 C 17.7975 1.3065 0.0 0
M  V30 17 C 19.0687 0.612 0.0 0
M  V30 18 C 20.34 1.4831 0.0 0
M  V30 19 C 21.6113 0.8004 0.0 0
M  V30 20 C 22.8825 1.6714 0.0 0
M  V30 21 C 24.1538 0.9769 0.0 0
M  V30 22 C 25.425 1.848 0.0 0
M  V30 23 C 26.6963 1.1653 0.0 0
M  V30 24 C 27.9675 2.0363 0.0 0
M  V30 END ATOM
M  V30 BEGIN BOND
M  V30 1 2 1 2
M  V30 2 1 1 3
M  V30 3 1 3 4
M  V30 4 1 4 5
M  V30 5 1 5 6
M  V30 6 1 6 7
M  V30 7 1 7 8
M  V30 8 1 8 9
M  V30 9 1 9 10
M  V30 10 1 10 11
M  V30 11 1 11 12
M  V30 12 1 12 13
M  V30 13 1 13 14
M  V30 14 1 14 15
M  V30 15 1 15 16
M  V30 16 1 16 17
M  V30 17 1 17 18
M  V30 18 1 18 19
M  V30 19 1 19 20
M  V30 20 1 20 21
M  V30 21 1 21 22
M  V30 22 1 22 23
M  V30 23 1 23 24
M  V30 END BOND
M  V30 END CTAB
M  END
>  <Molecule Name>
tetracosene

>  <Molecule Name 2>
tetracosene

>  <Database>
Essential Oil Database

>  <InChI>
InChI=1S/C24H48/c1-3-5-7-9-11-13-15-17-19-21-23-24-22-20-18-16-14-12-10-8-6-4-2/h3H,1,4-24H2,2H3

>  <InChI-Key>
ZDLBWMYNYNATIW-UHFFFAOYSA-N

>  <Smiles>
CCCCCCCCCCCCCCCCCCCCCCC=C

>  <Molecular Formula>
C24H48

$$$$
(z)-3-hexanyl acetate
Actelion Java MolfileCreator 2.0

  0  0  0  0  0  0              0 V3000
M  V30 BEGIN CTAB
M  V30 COUNTS 10 9 0 0 0
M  V30 BEGIN ATOM
M  V30 1 O 0.0 0.0 0.0 0
M  V30 2 C 1.256 -0.6396 0.0 0
M  V30 3 O 2.512 0.314 0.0 0
M  V30 4 C 1.1397 -2.0933 0.0 0
M  V30 5 C 3.768 -0.314 0.0 0 CFG=2
M  V30 6 C 5.024 0.6396 0.0 0
M  V30 7 C 3.6517 -1.7677 0.0 0
M  V30 8 C 6.28 0.0116 0.0 0
M  V30 9 C 2.1631 -2.4422 0.0 0
M  V30 10 C 7.536 0.9652 0.0 0
M  V30 END ATOM
M  V30 BEGIN BOND
M  V30 1 2 1 2
M  V30 2 1 2 3
M  V30 3 1 2 4
M  V30 4 1 5 3 CFG=3
M  V30 5 1 5 6
M  V30 6 1 5 7
M  V30 7 1 6 8
M  V30 8 1 7 9
M  V30 9 1 8 10
M  V30 END BOND
M  V30 BEGIN COLLECTION
M  V30 MDLV30/STERAC1 ATOMS=(1 5)
M  V30 END COLLECTION
M  V30 END CTAB
M  END
>  <Molecule Name>
(z)-3-hexanyl acetate

>  <Molecule Name 2>
(z)-3-hexanyl acetate

>  <Database>
Essential Oil Database

>  <InChI>
InChI=1S/C8H16O2/c1-4-6-8(5-2)10-7(3)9/h8H,4-6H2,1-3H3/t8-/m0/s1

>  <InChI-Key>
RTIAQOLKVLAEAU-QMMMGPOBSA-N

>  <Smiles>
CCCC(CC)OC(C)=O

>  <Molecular Formula>
C8H16O2

$$$$
(z)-3-hexenyl octanoate
Actelion Java MolfileCreator 2.0

  0  0  0  0  0  0              0 V3000
M  V30 BEGIN CTAB
M  V30 COUNTS 16 15 0 0 0
M  V30 BEGIN ATOM
M  V30 1 O 0.0 0.0 0.0 0
M  V30 2 C -0.1237 1.5837 0.0 0
M  V30 3 O 1.0022 2.388 0.0 0
M  V30 4 C -1.4971 2.388 0.0 0
M  V30 5 C 2.1281 1.7198 0.0 0
M  V30 6 C -2.8705 1.7198 0.0 0
M  V30 7 C 3.2541 2.5241 0.0 0
M  V30 8 C -4.2439 2.5241 0.0 0
M  V30 9 C 4.38 1.8559 0.0 0
M  V30 10 C -5.6173 1.8559 0.0 0
M  V30 11 C 5.506 2.6725 0.0 0
M  V30 12 C -6.9907 2.6725 0.0 0
M  V30 13 C 5.3822 4.2563 0.0 0
M  V30 14 C -8.3641 2.0044 0.0 0
M  V30 15 C 4.0088 5.0605 0.0 0
M  V30 16 C -9.7376 2.8086 0.0 0
M  V30 END ATOM
M  V30 BEGIN BOND
M  V30 1 2 1 2
M  V30 2 1 2 3
M  V30 3 1 2 4
M  V30 4 1 3 5
M  V30 5 1 4 6
M  V30 6 1 5 7
M  V30 7 1 6 8
M  V30 8 1 7 9
M  V30 9 1 8 10
M  V30 10 2 9 11
M  V30 11 1 10 12
M  V30 12 1 11 13
M  V30 13 1 12 14
M  V30 14 1 13 15
M  V30 15 1 14 16
M  V30 END BOND
M  V30 END CTAB
M  END
>  <Molecule Name>
(z)-3-hexenyl octanoate

>  <Molecule Name 2>
(z)-3-hexenyl octanoate

>  <Database>
Essential Oil Database

>  <InChI>
InChI=1S/C14H26O2/c1-3-5-7-9-10-12-14(15)16-13-11-8-6-4-2/h6,8H,3-5,7,9-13H2,1-2H3/b8-6-

>  <InChI-Key>
DYIDDAHHUMHEEQ-VURMDHGXSA-N

>  <Smiles>
CCCCCCCC(OCC/C=C\CC)=O

>  <Molecular Formula>
C14H26O2

$$$$
thujyl alcohol
Actelion Java MolfileCreator 2.0

  0  0  0  0  0  0              0 V3000
M  V30 BEGIN CTAB
M  V30 COUNTS 11 12 0 0 0
M  V30 BEGIN ATOM
M  V30 1 O 0.0 0.0 0.0 0
M  V30 2 C -1.5831 0.1236 0.0 0 CFG=2
M  V30 3 C -2.5231 1.4099 0.0 0 CFG=1
M  V30 4 C -2.5231 -0.9152 0.0 0
M  V30 5 C -4.032 1.0513 0.0 0 CFG=2
M  V30 6 C -2.1644 2.9189 0.0 0
M  V30 7 C -4.032 -0.3092 0.0 0 CFG=1
M  V30 8 C -5.4049 0.3957 0.0 0
M  V30 9 C -4.7988 -1.5089 0.0 0
M  V30 10 C -6.3696 -1.546 0.0 0
M  V30 11 C -4.0691 -2.5478 0.0 0
M  V30 END ATOM
M  V30 BEGIN BOND
M  V30 1 1 2 1 CFG=1
M  V30 2 1 2 3
M  V30 3 1 2 4
M  V30 4 1 3 5
M  V30 5 1 3 6 CFG=1
M  V30 6 1 4 7
M  V30 7 1 5 8 CFG=3
M  V30 8 1 7 9 CFG=1
M  V30 9 1 9 10
M  V30 10 1 9 11
M  V30 11 1 5 7
M  V30 12 1 7 8
M  V30 END BOND
M  V30 BEGIN COLLECTION
M  V30 MDLV30/STERAC1 ATOMS=(4 2 3 5 7)
M  V30 END COLLECTION
M  V30 END CTAB
M  END
>  <Molecule Name>
thujyl alcohol

>  <Molecule Name 2>
thujyl alcohol

>  <Database>
Essential Oil Database

>  <InChI>
InChI=1S/C10H18O/c1-6(2)10-4-8(10)7(3)9(11)5-10/h6-9,11H,4-5H2,1-3H3/t7-,8-,9+,10+/m1/s1

>  <InChI-Key>
DZVXRFMREAADPP-IMSYWVGJSA-N

>  <Smiles>
CC(C)[C@](C1)(C2)[C@H]1[C@@H](C)[C@H]2O

>  <Molecular Formula>
C10H18O

$$$$
lantadene a
Actelion Java MolfileCreator 2.0

  0  0  0  0  0  0              0 V3000
M  V30 BEGIN CTAB
M  V30 COUNTS 40 44 0 0 0
M  V30 BEGIN ATOM
M  V30 1 O 0.0 0.0 0.0 0
M  V30 2 C -1.5831 0.1236 0.0 0
M  V30 3 C -2.3871 -1.0018 0.0 0
M  V30 4 C -2.3871 1.4966 0.0 0
M  V30 5 C -3.9703 -0.8781 0.0 0 CFG=1
M  V30 6 C -1.1502 -1.41 0.0 0
M  V30 7 C -2.7829 -2.3129 0.0 0
M  V30 8 C -3.9703 1.6202 0.0 0
M  V30 9 C -4.7742 0.4947 0.0 0 CFG=2
M  V30 10 C -4.7742 -2.0037 0.0 0
M  V30 11 C -6.3574 0.6184 0.0 0 CFG=2
M  V30 12 C -5.5782 1.8676 0.0 0
M  V30 13 C -6.3574 -1.88 0.0 0
M  V30 14 C -7.1614 -0.5071 0.0 0 CFG=1
M  V30 15 C -7.1614 1.9913 0.0 0
M  V30 16 C -8.7446 -0.3834 0.0 0 CFG=1
M  V30 17 C -7.9654 -1.6326 0.0 0
M  V30 18 C -8.7446 2.115 0.0 0
M  V30 19 C -9.5362 0.9894 0.0 0
M  V30 20 C -9.5362 -1.5089 0.0 0
M  V30 21 C -9.0291 -1.7068 0.0 0
M  V30 22 C -11.1194 1.1131 0.0 0 CFG=1
M  V30 23 C -11.1194 -1.3852 0.0 0
M  V30 24 C -11.9233 -0.0123 0.0 0 CFG=2
M  V30 25 C -11.9233 2.486 0.0 0
M  V30 26 C -12.7273 -1.1379 0.0 0
M  V30 27 C -13.5065 0.1113 0.0 0 CFG=2
M  V30 28 C -13.5065 2.6097 0.0 0
M  V30 29 O -12.0717 -2.2634 0.0 0
M  V30 30 O -14.0136 -1.8676 0.0 0
M  V30 31 O -14.2981 -1.0142 0.0 0
M  V30 32 C -14.2981 1.4842 0.0 0
M  V30 33 C -14.9907 3.2653 0.0 0
M  V30 34 C -13.3581 4.1682 0.0 0
M  V30 35 C -15.8813 -0.8905 0.0 0
M  V30 36 O -16.6853 0.4823 0.0 0
M  V30 37 C -16.6853 -2.016 0.0 0
M  V30 38 C -18.2684 -1.8924 0.0 0
M  V30 39 C -16.0297 -3.1416 0.0 0
M  V30 40 C -19.0724 -0.5194 0.0 0
M  V30 END ATOM
M  V30 BEGIN BOND
M  V30 1 2 1 2
M  V30 2 1 2 3
M  V30 3 1 2 4
M  V30 4 1 3 5
M  V30 5 1 3 6
M  V30 6 1 3 7
M  V30 7 1 4 8
M  V30 8 1 5 9
M  V30 9 1 5 10 CFG=3
M  V30 10 1 9 11
M  V30 11 1 9 12 CFG=3
M  V30 12 1 10 13
M  V30 13 1 11 14
M  V30 14 1 11 15 CFG=3
M  V30 15 1 14 16
M  V30 16 1 14 17 CFG=3
M  V30 17 1 15 18
M  V30 18 1 16 19
M  V30 19 1 16 20
M  V30 20 1 16 21 CFG=1
M  V30 21 1 19 22
M  V30 22 1 20 23
M  V30 23 1 22 24
M  V30 24 1 22 25 CFG=1
M  V30 25 1 24 26 CFG=3
M  V30 26 1 24 27
M  V30 27 1 25 28
M  V30 28 2 26 29
M  V30 29 1 26 30
M  V30 30 1 27 31 CFG=3
M  V30 31 1 27 32
M  V30 32 1 28 33
M  V30 33 1 28 34
M  V30 34 1 31 35
M  V30 35 2 35 36
M  V30 36 1 35 37
M  V30 37 2 37 38
M  V30 38 1 37 39
M  V30 39 1 38 40
M  V30 40 1 8 9
M  V30 41 1 13 14
M  V30 42 2 18 19
M  V30 43 1 23 24
M  V30 44 1 28 32
M  V30 END BOND
M  V30 BEGIN COLLECTION
M  V30 MDLV30/STERAC1 ATOMS=(8 5 9 11 14 16 22 24 27)
M  V30 END COLLECTION
M  V30 END CTAB
M  END
>  <Molecule Name>
lantadene a

>  <Molecule Name 2>
lantadene a

>  <Database>
Essential Oil Database

>  <InChI>
InChI=1S/C35H52O5/c1-10-21(2)28(37)40-27-20-30(3,4)19-23-22-11-12-25-32(7)15-14-26(36)31(5,6)24(32)13-16-34(25,9)33(22,8)17-18-35(23,27)29(38)39/h10-11,23-25,27H,12-20H2,1-9H3,(H,38,39)/b21-10-/t23-,24-,25+,27+,32-,33+,34+,35-/m0/s1

>  <InChI-Key>
KCLIRHUTOPOHKJ-LSZVMECJSA-N

>  <Smiles>
CC(C)(C[C@H]1C2=CC[C@H]([C@@](C)(CC3)[C@@H](CC4)C(C)(C)C3=O)[C@]4(C)[C@]2(C)CC[C@]11C(O)=O)C[C@H]1OC(/C(\C)=C\C)=O

>  <Molecular Formula>
C35H52O5

$$$$
lantadene b
Actelion Java MolfileCreator 2.0

  0  0  0  0  0  0              0 V3000
M  V30 BEGIN CTAB
M  V30 COUNTS 40 44 0 0 0
M  V30 BEGIN ATOM
M  V30 1 O 0.0 0.0 0.0 0
M  V30 2 C -1.581 0.1235 0.0 0
M  V30 3 C -2.3716 -1.0005 0.0 0
M  V30 4 C -2.3716 1.4946 0.0 0
M  V30 5 C -3.9527 -0.877 0.0 0 CFG=1
M  V30 6 C -1.1364 -1.4081 0.0 0
M  V30 7 C -2.7668 -2.3098 0.0 0
M  V30 8 C -3.9527 1.6181 0.0 0
M  V30 9 C -4.7556 0.494 0.0 0 CFG=2
M  V30 10 C -4.7556 -2.001 0.0 0
M  V30 11 C -6.3366 0.6176 0.0 0 CFG=2
M  V30 12 C -5.5584 1.8651 0.0 0
M  V30 13 C -6.3366 -1.8775 0.0 0
M  V30 14 C -7.1395 -0.5064 0.0 0 CFG=1
M  V30 15 C -7.1395 1.9887 0.0 0
M  V30 16 C -8.7206 -0.3829 0.0 0 CFG=1
M  V30 17 C -7.9424 -1.6304 0.0 0
M  V30 18 C -8.7206 2.1122 0.0 0
M  V30 19 C -9.5235 0.9881 0.0 0
M  V30 20 C -9.5235 -1.5069 0.0 0
M  V30 21 C -9.0047 -1.7046 0.0 0
M  V30 22 C -11.1046 1.1116 0.0 0 CFG=1
M  V30 23 C -11.1046 -1.3834 0.0 0
M  V30 24 C -11.9075 -0.0123 0.0 0 CFG=2
M  V30 25 C -11.9075 2.4827 0.0 0
M  V30 26 C -12.698 -1.1364 0.0 0
M  V30 27 C -13.4886 0.1111 0.0 0 CFG=2
M  V30 28 C -13.4886 2.6063 0.0 0
M  V30 29 O -12.0434 -2.2604 0.0 0
M  V30 30 O -13.9827 -1.8651 0.0 0
M  V30 31 O -14.2915 -1.0128 0.0 0
M  V30 32 C -14.2915 1.4822 0.0 0
M  V30 33 C -14.9708 3.2609 0.0 0
M  V30 34 C -13.3403 4.1626 0.0 0
M  V30 35 C -15.8725 -0.8893 0.0 0
M  V30 36 O -16.6631 0.4817 0.0 0
M  V30 37 C -16.6631 -2.0134 0.0 0
M  V30 38 C -18.2442 -1.8898 0.0 0
M  V30 39 C -19.0471 -3.0139 0.0 0
M  V30 40 C -19.0471 -0.5187 0.0 0
M  V30 END ATOM
M  V30 BEGIN BOND
M  V30 1 2 1 2
M  V30 2 1 2 3
M  V30 3 1 2 4
M  V30 4 1 3 5
M  V30 5 1 3 6
M  V30 6 1 3 7
M  V30 7 1 4 8
M  V30 8 1 5 9
M  V30 9 1 5 10 CFG=3
M  V30 10 1 9 11
M  V30 11 1 9 12 CFG=3
M  V30 12 1 10 13
M  V30 13 1 11 14
M  V30 14 1 11 15 CFG=3
M  V30 15 1 14 16
M  V30 16 1 14 17 CFG=3
M  V30 17 1 15 18
M  V30 18 1 16 19
M  V30 19 1 16 20
M  V30 20 1 16 21 CFG=1
M  V30 21 1 19 22
M  V30 22 1 20 23
M  V30 23 1 22 24
M  V30 24 1 22 25 CFG=1
M  V30 25 1 24 26 CFG=3
M  V30 26 1 24 27
M  V30 27 1 25 28
M  V30 28 2 26 29
M  V30 29 1 26 30
M  V30 30 1 27 31 CFG=3
M  V30 31 1 27 32
M  V30 32 1 28 33
M  V30 33 1 28 34
M  V30 34 1 31 35
M  V30 35 2 35 36
M  V30 36 1 35 37
M  V30 37 2 37 38
M  V30 38 1 38 39
M  V30 39 1 38 40
M  V30 40 1 8 9
M  V30 41 1 13 14
M  V30 42 2 18 19
M  V30 43 1 23 24
M  V30 44 1 28 32
M  V30 END BOND
M  V30 BEGIN COLLECTION
M  V30 MDLV30/STERAC1 ATOMS=(8 5 9 11 14 16 22 24 27)
M  V30 END COLLECTION
M  V30 END CTAB
M  END
>  <Molecule Name>
lantadene b

>  <Molecule Name 2>
lantadene b

>  <Database>
Essential Oil Database

>  <InChI>
InChI=1S/C35H52O5/c1-21(2)18-28(37)40-27-20-30(3,4)19-23-22-10-11-25-32(7)14-13-26(36)31(5,6)24(32)12-15-34(25,9)33(22,8)16-17-35(23,27)29(38)39/h10,18,23-25,27H,11-17,19-20H2,1-9H3,(H,38,39)/t23-,24-,25+,27+,32-,33+,34+,35-/m0/s1

>  <InChI-Key>
VYPAPFHUHDWCBI-QQAPFUPGSA-N

>  <Smiles>
CC(C)(C[C@H]1C2=CC[C@H]([C@@](C)(CC3)[C@@H](CC4)C(C)(C)C3=O)[C@]4(C)[C@]2(C)CC[C@]11C(O)=O)C[C@H]1OC(C=C(C)C)=O

>  <Molecular Formula>
C35H52O5

$$$$
furan-2-ethyl
Actelion Java MolfileCreator 2.0

  0  0  0  0  0  0              0 V3000
M  V30 BEGIN CTAB
M  V30 COUNTS 7 7 0 0 0
M  V30 BEGIN ATOM
M  V30 1 O 0.0 0.0 0.0 0
M  V30 2 C 1.1019 0.997 0.0 0
M  V30 3 C 0.3804 -1.338 0.0 0
M  V30 4 C 2.2039 0.2098 0.0 0
M  V30 5 C 0.9707 2.6761 0.0 0
M  V30 6 C 1.7972 -1.2069 0.0 0
M  V30 7 C -0.4853 3.5288 0.0 0 RAD=2
M  V30 END ATOM
M  V30 BEGIN BOND
M  V30 1 1 1 2
M  V30 2 1 1 3
M  V30 3 2 2 4
M  V30 4 1 2 5
M  V30 5 2 3 6
M  V30 6 1 5 7
M  V30 7 1 4 6
M  V30 END BOND
M  V30 END CTAB
M  END
>  <Molecule Name>
furan-2-ethyl

>  <Molecule Name 2>
furan-2-ethyl

>  <Database>
Essential Oil Database

>  <InChI>
InChI=1S/C6H7O/c1-2-6-4-3-5-7-6/h3-5H,1-2H2

>  <InChI-Key>
YTELTEHBOFKLDW-UHFFFAOYSA-N

>  <Smiles>
[CH2]Cc1ccc[o]1

>  <Molecular Formula>
C6H7O

$$$$
eremophilene
Actelion Java MolfileCreator 2.0

  0  0  0  0  0  0              0 V3000
M  V30 BEGIN CTAB
M  V30 COUNTS 15 16 0 0 0
M  V30 BEGIN ATOM
M  V30 1 C 0.0 0.0 0.0 0
M  V30 2 C -1.4604 0.9241 0.0 0
M  V30 3 C -0.114 -1.4261 0.0 0 CFG=2
M  V30 4 C 1.2322 0.9241 0.0 0
M  V30 5 C -2.9208 0.3194 0.0 0
M  V30 6 C -1.5744 -2.0536 0.0 0 CFG=1
M  V30 7 C 1.1181 -2.0536 0.0 0
M  V30 8 C -0.2281 -2.8523 0.0 0
M  V30 9 C 2.4644 0.3194 0.0 0
M  V30 10 C -3.0349 -1.1067 0.0 0
M  V30 11 C -1.6885 -3.4798 0.0 0
M  V30 12 C 2.3503 -1.1295 0.0 0 CFG=2
M  V30 13 C 3.5825 -1.7456 0.0 0
M  V30 14 C 3.4684 -3.1718 0.0 0
M  V30 15 C 4.8147 -0.8214 0.0 0
M  V30 END ATOM
M  V30 BEGIN BOND
M  V30 1 2 1 2
M  V30 2 1 1 3
M  V30 3 1 1 4
M  V30 4 1 2 5
M  V30 5 1 3 6
M  V30 6 1 3 7
M  V30 7 1 3 8 CFG=3
M  V30 8 1 4 9
M  V30 9 1 5 10
M  V30 10 1 6 11 CFG=3
M  V30 11 1 7 12
M  V30 12 1 12 13 CFG=3
M  V30 13 2 13 14
M  V30 14 1 13 15
M  V30 15 1 6 10
M  V30 16 1 9 12
M  V30 END BOND
M  V30 BEGIN COLLECTION
M  V30 MDLV30/STERAC1 ATOMS=(3 3 6 12)
M  V30 END COLLECTION
M  V30 END CTAB
M  END
>  <Molecule Name>
eremophilene

>  <Molecule Name 2>
eremophilene

>  <Database>
Essential Oil Database

>  <InChI>
InChI=1S/C15H24/c1-11(2)13-8-9-14-7-5-6-12(3)15(14,4)10-13/h7,12-13H,1,5-6,8-10H2,2-4H3/t12-,13+,15+/m1/s1

>  <InChI-Key>
QEBNYNLSCGVZOH-IPYPFGDCSA-N

>  <Smiles>
C[C@H]1[C@](C)(C[C@H](CC2)C(C)=C)C2=CCC1

>  <Molecular Formula>
C15H24

$$$$
aristolochene
Actelion Java MolfileCreator 2.0

  0  0  0  0  0  0              0 V3000
M  V30 BEGIN CTAB
M  V30 COUNTS 15 16 0 0 0
M  V30 BEGIN ATOM
M  V30 1 C 0.0 0.0 0.0 0
M  V30 2 C 1.2287 0.9215 0.0 0
M  V30 3 C -0.1137 -1.4221 0.0 0 CFG=2
M  V30 4 C -1.4562 0.9215 0.0 0
M  V30 5 C 2.4574 0.3185 0.0 0
M  V30 6 C -1.57 -2.0706 0.0 0 CFG=1
M  V30 7 C 1.1149 -2.0706 0.0 0
M  V30 8 C -0.2275 -2.8442 0.0 0
M  V30 9 C -2.9125 0.3185 0.0 0
M  V30 10 C 2.3436 -1.1035 0.0 0 CFG=2
M  V30 11 C -3.0262 -1.149 0.0 0
M  V30 12 C -1.6838 -3.4927 0.0 0
M  V30 13 C 3.5723 -1.7406 0.0 0
M  V30 14 C 3.4586 -3.1628 0.0 0
M  V30 15 C 4.8011 -0.8191 0.0 0
M  V30 END ATOM
M  V30 BEGIN BOND
M  V30 1 2 1 2
M  V30 2 1 1 3
M  V30 3 1 1 4
M  V30 4 1 2 5
M  V30 5 1 3 6
M  V30 6 1 3 7
M  V30 7 1 3 8 CFG=3
M  V30 8 1 4 9
M  V30 9 1 5 10
M  V30 10 1 6 11
M  V30 11 1 6 12 CFG=3
M  V30 12 1 10 13 CFG=1
M  V30 13 2 13 14
M  V30 14 1 13 15
M  V30 15 1 7 10
M  V30 16 1 9 11
M  V30 END BOND
M  V30 BEGIN COLLECTION
M  V30 MDLV30/STERAC1 ATOMS=(3 3 6 10)
M  V30 END COLLECTION
M  V30 END CTAB
M  END
>  <Molecule Name>
aristolochene

>  <Molecule Name 2>
aristolochene

>  <Database>
Essential Oil Database

>  <InChI>
InChI=1S/C15H24/c1-11(2)13-8-9-14-7-5-6-12(3)15(14,4)10-13/h9,12-13H,1,5-8,10H2,2-4H3/t12-,13-,15+/m1/s1

>  <InChI-Key>
YONHOSLUBQJXPR-NFAWXSAZSA-N

>  <Smiles>
C[C@H](CCC1)[C@](C)(C2)C1=CC[C@H]2C(C)=C

>  <Molecular Formula>
C15H24

$$$$
1,5-heptadiene, 2,5-dimethyl-3-methylene
Actelion Java MolfileCreator 2.0

  0  0  0  0  0  0              0 V3000
M  V30 BEGIN CTAB
M  V30 COUNTS 10 9 0 0 0
M  V30 BEGIN ATOM
M  V30 1 C 0.0 0.0 0.0 0
M  V30 2 C 0.681 1.4262 0.0 0
M  V30 3 C 0.681 -1.1692 0.0 0
M  V30 4 C -1.6446 0.1284 0.0 0
M  V30 5 C 2.0687 1.5547 0.0 0
M  V30 6 C -0.1413 2.8525 0.0 0
M  V30 7 C -2.4798 -1.0407 0.0 0
M  V30 8 C -4.1245 -0.9122 0.0 0
M  V30 9 C -1.7988 -2.21 0.0 0
M  V30 10 C -4.9597 -2.0815 0.0 0
M  V30 END ATOM
M  V30 BEGIN BOND
M  V30 1 1 1 2
M  V30 2 2 1 3
M  V30 3 1 1 4
M  V30 4 2 2 5
M  V30 5 1 2 6
M  V30 6 1 4 7
M  V30 7 2 7 8
M  V30 8 1 7 9
M  V30 9 1 8 10
M  V30 END BOND
M  V30 END CTAB
M  END
>  <Molecule Name>
1,5-heptadiene, 2,5-dimethyl-3-methylene

>  <Molecule Name 2>
1,5-heptadiene, 2,5-dimethyl-3-methylene

>  <Database>
Essential Oil Database

>  <InChI>
InChI=1S/C10H16/c1-6-9(4)7-10(5)8(2)3/h6H,2,5,7H2,1,3-4H3/b9-6+

>  <InChI-Key>
NUVZHUHADLUEJS-RMKNXTFCSA-N

>  <Smiles>
C/C=C(\C)/CC(C(C)=C)=C

>  <Molecular Formula>
C10H16

$$$$
sesquithujene
Actelion Java MolfileCreator 2.0

  0  0  0  0  0  0              0 V3000
M  V30 BEGIN CTAB
M  V30 COUNTS 15 16 0 0 0
M  V30 BEGIN ATOM
M  V30 1 C 0.0 0.0 0.0 0
M  V30 2 C 0.7511 -1.0641 0.0 0
M  V30 3 C -1.5398 -0.363 0.0 0 CFG=2
M  V30 4 C 0.363 1.5398 0.0 0
M  V30 5 C -0.2128 -2.1282 0.0 0
M  V30 6 C -1.665 -1.7276 0.0 0 CFG=2
M  V30 7 C -2.942 -1.0391 0.0 0
M  V30 8 C -2.4412 -2.9545 0.0 0 CFG=1
M  V30 9 C -4.0437 -2.9921 0.0 0
M  V30 10 C -1.6901 -4.0187 0.0 0
M  V30 11 C -4.8199 -4.219 0.0 0
M  V30 12 C -6.4224 -4.2565 0.0 0
M  V30 13 C -7.3864 -2.942 0.0 0
M  V30 14 C -8.9889 -2.9796 0.0 0
M  V30 15 C -6.8606 -1.4647 0.0 0
M  V30 END ATOM
M  V30 BEGIN BOND
M  V30 1 2 1 2
M  V30 2 1 3 1 CFG=3
M  V30 3 1 1 4
M  V30 4 1 2 5
M  V30 5 1 3 6
M  V30 6 1 3 7
M  V30 7 1 6 8
M  V30 8 1 8 9
M  V30 9 1 8 10 CFG=3
M  V30 10 1 9 11
M  V30 11 1 11 12
M  V30 12 2 12 13
M  V30 13 1 13 14
M  V30 14 1 13 15
M  V30 15 1 6 5 CFG=3
M  V30 16 1 6 7
M  V30 END BOND
M  V30 BEGIN COLLECTION
M  V30 MDLV30/STERAC1 ATOMS=(3 3 6 8)
M  V30 END COLLECTION
M  V30 END CTAB
M  END
>  <Molecule Name>
sesquithujene

>  <Molecule Name 2>
sesquithujene

>  <Database>
Essential Oil Database

>  <InChI>
InChI=1S/C15H24/c1-11(2)6-5-7-13(4)15-9-8-12(3)14(15)10-15/h6,8,13-14H,5,7,9-10H2,1-4H3/t13-,14-,15-/m1/s1

>  <InChI-Key>
UCQHFDKBUHCAFR-RBSFLKMASA-N

>  <Smiles>
C[C@H](CCC=C(C)C)[C@@]1(C2)[C@H]2C(C)=CC1

>  <Molecular Formula>
C15H24

$$$$
7-isoquinolinol
Actelion Java MolfileCreator 2.0

  0  0  0  0  0  0              0 V3000
M  V30 BEGIN CTAB
M  V30 COUNTS 11 12 0 0 0
M  V30 BEGIN ATOM
M  V30 1 O 0.0 0.0 0.0 0
M  V30 2 C 1.1977 0.8555 0.0 0
M  V30 3 C 2.3954 0.1447 0.0 0
M  V30 4 C 1.0661 2.5402 0.0 0
M  V30 5 C 3.5931 1.0003 0.0 0
M  V30 6 C 2.2638 3.3957 0.0 0
M  V30 7 C 3.4615 2.685 0.0 0
M  V30 8 C 4.7909 0.2895 0.0 0
M  V30 9 C 4.6593 3.5405 0.0 0
M  V30 10 N 5.9886 1.145 0.0 0
M  V30 11 C 5.857 2.8298 0.0 0
M  V30 END ATOM
M  V30 BEGIN BOND
M  V30 1 1 1 2
M  V30 2 2 2 3
M  V30 3 1 2 4
M  V30 4 1 3 5
M  V30 5 2 4 6
M  V30 6 1 5 7
M  V30 7 2 5 8
M  V30 8 2 7 9
M  V30 9 1 8 10
M  V30 10 1 9 11
M  V30 11 1 6 7
M  V30 12 2 10 11
M  V30 END BOND
M  V30 END CTAB
M  END
>  <Molecule Name>
7-isoquinolinol

>  <Molecule Name 2>
7-isoquinolinol

>  <Database>
Essential Oil Database

>  <InChI>
InChI=1S/C9H7NO/c11-9-2-1-7-3-4-10-6-8(7)5-9/h1-6,11H

>  <InChI-Key>
WCRKBMABEPCYII-UHFFFAOYSA-N

>  <Smiles>
Oc1cc2cnccc2cc1

>  <Molecular Formula>
C9H7NO

$$$$
quinoline
Actelion Java MolfileCreator 2.0

  0  0  0  0  0  0              0 V3000
M  V30 BEGIN CTAB
M  V30 COUNTS 10 11 0 0 0
M  V30 BEGIN ATOM
M  V30 1 N 0.0 0.0 0.0 0
M  V30 2 C -1.3366 0.7827 0.0 0
M  V30 3 C 1.0957 0.7827 0.0 0
M  V30 4 C -1.457 2.324 0.0 0
M  V30 5 C -2.6732 0.1324 0.0 0
M  V30 6 C 0.9753 2.324 0.0 0
M  V30 7 C -0.3612 3.1067 0.0 0
M  V30 8 C -2.7936 3.1067 0.0 0
M  V30 9 C -4.0099 0.9151 0.0 0
M  V30 10 C -4.1303 2.4565 0.0 0
M  V30 END ATOM
M  V30 BEGIN BOND
M  V30 1 1 1 2
M  V30 2 2 1 3
M  V30 3 1 2 4
M  V30 4 2 2 5
M  V30 5 1 3 6
M  V30 6 1 4 7
M  V30 7 2 4 8
M  V30 8 1 5 9
M  V30 9 1 8 10
M  V30 10 2 6 7
M  V30 11 2 9 10
M  V30 END BOND
M  V30 END CTAB
M  END
>  <Molecule Name>
quinoline

>  <Molecule Name 2>
quinoline

>  <Database>
Essential Oil Database

>  <InChI>
InChI=1S/C9H7N/c1-2-6-9-8(4-1)5-3-7-10-9/h1-7H

>  <InChI-Key>
SMWDFEZZVXVKRB-UHFFFAOYSA-N

>  <Smiles>
c1ccc2ncccc2c1

>  <Molecular Formula>
C9H7N

$$$$
oxiranone
Actelion Java MolfileCreator 2.0

  0  0  0  0  0  0              0 V3000
M  V30 BEGIN CTAB
M  V30 COUNTS 4 4 0 0 0
M  V30 BEGIN ATOM
M  V30 1 O 0.0 0.0 0.0 0
M  V30 2 C -0.1146 -1.4441 0.0 0
M  V30 3 O -1.0659 -2.6934 0.0 0
M  V30 4 C 0.5157 -2.6934 0.0 0
M  V30 END ATOM
M  V30 BEGIN BOND
M  V30 1 2 1 2
M  V30 2 1 2 3
M  V30 3 1 2 4
M  V30 4 1 3 4
M  V30 END BOND
M  V30 END CTAB
M  END
>  <Molecule Name>
oxiranone

>  <Molecule Name 2>
oxiranone

>  <Database>
Essential Oil Database

>  <InChI>
InChI=1S/C2H2O2/c3-2-1-4-2/h1H2

>  <InChI-Key>
HZSIFDFXFAXICF-UHFFFAOYSA-N

>  <Smiles>
O=C1OC1

>  <Molecular Formula>
C2H2O2

$$$$
p-menth-3-ene-9-ol
Actelion Java MolfileCreator 2.0

  0  0  0  0  0  0              0 V3000
M  V30 BEGIN CTAB
M  V30 COUNTS 11 11 0 0 0
M  V30 BEGIN ATOM
M  V30 1 O 0.0 0.0 0.0 0
M  V30 2 C -0.123 1.5755 0.0 0
M  V30 3 C 0.997 2.3755 0.0 0
M  V30 4 C 0.8739 3.951 0.0 0
M  V30 5 C 2.117 1.7109 0.0 0
M  V30 6 C -0.4923 4.7511 0.0 0
M  V30 7 C 1.994 4.7511 0.0 0
M  V30 8 C -0.6154 6.3266 0.0 0
M  V30 9 C 1.8709 6.3266 0.0 0
M  V30 10 C 0.5046 7.1267 0.0 0
M  V30 11 C 0.3815 8.7022 0.0 0
M  V30 END ATOM
M  V30 BEGIN BOND
M  V30 1 1 1 2
M  V30 2 1 2 3
M  V30 3 1 3 4
M  V30 4 1 3 5
M  V30 5 2 4 6
M  V30 6 1 4 7
M  V30 7 1 6 8
M  V30 8 1 7 9
M  V30 9 1 8 10
M  V30 10 1 10 11
M  V30 11 1 9 10
M  V30 END BOND
M  V30 END CTAB
M  END
>  <Molecule Name>
p-menth-3-ene-9-ol

>  <Molecule Name 2>
p-menth-3-ene-9-ol

>  <Database>
Essential Oil Database

>  <InChI>
InChI=1S/C10H18O/c1-8-3-5-10(6-4-8)9(2)7-11/h5,8-9,11H,3-4,6-7H2,1-2H3

>  <InChI-Key>
KFUIAXXMGXAVHN-UHFFFAOYSA-N

>  <Smiles>
CC(CO)C1=CCC(C)CC1

>  <Molecular Formula>
C10H18O

$$$$
linalyl isobutyrate
Actelion Java MolfileCreator 2.0

  0  0  0  0  0  0              0 V3000
M  V30 BEGIN CTAB
M  V30 COUNTS 16 15 0 0 0
M  V30 BEGIN ATOM
M  V30 1 O 0.0 0.0 0.0 0
M  V30 2 C -0.816 1.3934 0.0 0
M  V30 3 O -2.4229 1.519 0.0 0
M  V30 4 C -0.1506 2.7869 0.0 0
M  V30 5 C -3.2389 0.3766 0.0 0 CFG=2
M  V30 6 C 1.2051 2.9125 0.0 0
M  V30 7 C -0.9666 4.1804 0.0 0
M  V30 8 C -2.0965 -0.2887 0.0 0
M  V30 9 C -4.0549 -0.7657 0.0 0
M  V30 10 C -4.6324 1.1926 0.0 0
M  V30 11 C -2.222 -1.6445 0.0 0
M  V30 12 C -5.6618 -0.6402 0.0 0
M  V30 13 C -6.4778 -1.7826 0.0 0
M  V30 14 C -8.0847 -1.6571 0.0 0
M  V30 15 C -8.9008 -2.7995 0.0 0
M  V30 16 C -8.9008 -0.2636 0.0 0
M  V30 END ATOM
M  V30 BEGIN BOND
M  V30 1 2 1 2
M  V30 2 1 2 3
M  V30 3 1 2 4
M  V30 4 1 5 3 CFG=3
M  V30 5 1 4 6
M  V30 6 1 4 7
M  V30 7 1 5 8
M  V30 8 1 5 9
M  V30 9 1 5 10
M  V30 10 2 8 11
M  V30 11 1 9 12
M  V30 12 1 12 13
M  V30 13 2 13 14
M  V30 14 1 14 15
M  V30 15 1 14 16
M  V30 END BOND
M  V30 BEGIN COLLECTION
M  V30 MDLV30/STERAC1 ATOMS=(1 5)
M  V30 END COLLECTION
M  V30 END CTAB
M  END
>  <Molecule Name>
linalyl isobutyrate

>  <Molecule Name 2>
linalyl isobutyrate

>  <Database>
Essential Oil Database

>  <InChI>
InChI=1S/C14H24O2/c1-7-14(6,10-8-9-11(2)3)16-13(15)12(4)5/h7,9,12H,1,8,10H2,2-6H3/t14-/m1/s1

>  <InChI-Key>
JZIARAQCPRDGAC-CQSZACIVSA-N

>  <Smiles>
CC(C)C(OC(C)(CCC=C(C)C)C=C)=O

>  <Molecular Formula>
C14H24O2

$$$$
1h – cycloprop [e] azulen – 7 – ol,
Actelion Java MolfileCreator 2.0

  0  0  0  0  0  0              0 V3000
M  V30 BEGIN CTAB
M  V30 COUNTS 12 14 0 0 0
M  V30 BEGIN ATOM
M  V30 1 O 0.0 0.0 0.0 0
M  V30 2 C 0.2658 1.4982 0.0 0
M  V30 3 C -0.7249 2.6943 0.0 0
M  V30 4 C 1.4619 2.1748 0.0 0
M  V30 5 C -0.0483 3.9993 0.0 0
M  V30 6 C -2.2715 2.6581 0.0 0
M  V30 7 C 1.2444 3.7214 0.0 0
M  V30 8 C -0.6645 5.4612 0.0 0
M  V30 9 C -3.3589 3.7697 0.0 0
M  V30 10 C -3.7697 2.3923 0.0 0
M  V30 11 C -2.1265 6.1016 0.0 0
M  V30 12 C -3.2985 5.3042 0.0 0
M  V30 END ATOM
M  V30 BEGIN BOND
M  V30 1 1 1 2
M  V30 2 1 2 3
M  V30 3 2 2 4
M  V30 4 1 3 5
M  V30 5 2 3 6
M  V30 6 1 4 7
M  V30 7 1 5 8
M  V30 8 1 6 9
M  V30 9 1 6 10
M  V30 10 2 8 11
M  V30 11 2 9 12
M  V30 12 2 5 7
M  V30 13 1 9 10
M  V30 14 1 11 12
M  V30 END BOND
M  V30 END CTAB
M  END
>  <Molecule Name>
1h – cycloprop [e] azulen – 7 – ol,

>  <Molecule Name 2>
1h – cycloprop [e] azulen – 7 – ol,

>  <Database>
Essential Oil Database

>  <InChI>
InChI=1S/C11H8O/c12-10-5-4-7-2-1-3-8-6-9(8)11(7)10/h1-5,12H,6H2

>  <InChI-Key>
OQBSAMYKCXFUSQ-UHFFFAOYSA-N

>  <Smiles>
OC1=CC=C2C1=C(C1)C1=CC=C2

>  <Molecular Formula>
C11H8O

$$$$
isoartemisia ketone
Actelion Java MolfileCreator 2.0

  0  0  0  0  0  0              0 V3000
M  V30 BEGIN CTAB
M  V30 COUNTS 11 10 0 0 0
M  V30 BEGIN ATOM
M  V30 1 O 0.0 0.0 0.0 0
M  V30 2 C -0.8044 1.3952 0.0 0
M  V30 3 C -0.1382 2.7904 0.0 0
M  V30 4 C -2.4133 1.5209 0.0 0
M  V30 5 C 1.2192 2.9161 0.0 0
M  V30 6 C -4.0222 1.6465 0.0 0
M  V30 7 C -2.539 3.1297 0.0 0
M  V30 8 C -2.539 0.1634 0.0 0
M  V30 9 C 1.8854 4.3113 0.0 0
M  V30 10 C 1.8854 1.7722 0.0 0
M  V30 11 C -4.8392 0.5027 0.0 0
M  V30 END ATOM
M  V30 BEGIN BOND
M  V30 1 2 1 2
M  V30 2 1 2 3
M  V30 3 1 2 4
M  V30 4 2 3 5
M  V30 5 1 4 6
M  V30 6 1 4 7
M  V30 7 1 4 8
M  V30 8 1 5 9
M  V30 9 1 5 10
M  V30 10 2 6 11
M  V30 END BOND
M  V30 END CTAB
M  END
>  <Molecule Name>
isoartemisia ketone

>  <Molecule Name 2>
isoartemisia ketone

>  <Database>
Essential Oil Database

>  <InChI>
InChI=1S/C10H16O/c1-6-10(4,5)9(11)7-8(2)3/h6-7H,1H2,2-5H3

>  <InChI-Key>
OTYVBQZXUNBRTK-UHFFFAOYSA-N

>  <Smiles>
CC(C)(C=C)C(C=C(C)C)=O

>  <Molecular Formula>
C10H16O

$$$$
1-naphthalenol
Actelion Java MolfileCreator 2.0

  0  0  0  0  0  0              0 V3000
M  V30 BEGIN CTAB
M  V30 COUNTS 11 12 0 0 0
M  V30 BEGIN ATOM
M  V30 1 O 0.0 0.0 0.0 0
M  V30 2 C -0.1198 1.5336 0.0 0
M  V30 3 C -1.4497 2.3244 0.0 0
M  V30 4 C 0.9705 2.3244 0.0 0
M  V30 5 C -1.5695 3.858 0.0 0
M  V30 6 C -2.7797 1.6774 0.0 0
M  V30 7 C 0.8506 3.858 0.0 0
M  V30 8 C -0.4792 4.6488 0.0 0
M  V30 9 C -2.8995 4.6488 0.0 0
M  V30 10 C -4.1096 2.4562 0.0 0
M  V30 11 C -4.2294 4.0018 0.0 0
M  V30 END ATOM
M  V30 BEGIN BOND
M  V30 1 1 1 2
M  V30 2 1 2 3
M  V30 3 2 2 4
M  V30 4 1 3 5
M  V30 5 2 3 6
M  V30 6 1 4 7
M  V30 7 1 5 8
M  V30 8 2 5 9
M  V30 9 1 6 10
M  V30 10 1 9 11
M  V30 11 2 7 8
M  V30 12 2 10 11
M  V30 END BOND
M  V30 END CTAB
M  END
>  <Molecule Name>
1-naphthalenol

>  <Molecule Name 2>
1-naphthalenol

>  <Database>
Essential Oil Database

>  <InChI>
InChI=1S/C10H8O/c11-10-7-3-5-8-4-1-2-6-9(8)10/h1-7,11H

>  <InChI-Key>
KJCVRFUGPWSIIH-UHFFFAOYSA-N

>  <Smiles>
Oc1cccc2ccccc12

>  <Molecular Formula>
C10H8O

$$$$
drimenol
Actelion Java MolfileCreator 2.0

  0  0  0  0  0  0              0 V3000
M  V30 BEGIN CTAB
M  V30 COUNTS 16 17 0 0 0
M  V30 BEGIN ATOM
M  V30 1 O 0.0 0.0 0.0 0
M  V30 2 C 1.1487 0.8205 0.0 0
M  V30 3 C 1.0225 2.4363 0.0 0 CFG=2
M  V30 4 C -0.3787 3.2695 0.0 0
M  V30 5 C 2.1712 3.2695 0.0 0 CFG=1
M  V30 6 C -0.5049 4.8853 0.0 0
M  V30 7 C -1.7799 2.5878 0.0 0
M  V30 8 C 2.045 4.8853 0.0 0 CFG=2
M  V30 9 C 3.32 2.5878 0.0 0
M  V30 10 C 2.045 1.9061 0.0 0
M  V30 11 C 0.6438 5.7058 0.0 0
M  V30 12 C 3.1937 5.7058 0.0 0
M  V30 13 C 4.4687 3.4083 0.0 0
M  V30 14 C 4.3425 5.0368 0.0 0
M  V30 15 C 2.146 6.943 0.0 0
M  V30 16 C 3.989 6.943 0.0 0
M  V30 END ATOM
M  V30 BEGIN BOND
M  V30 1 1 1 2
M  V30 2 1 3 2 CFG=3
M  V30 3 1 3 4
M  V30 4 1 3 5
M  V30 5 2 4 6
M  V30 6 1 4 7
M  V30 7 1 5 8
M  V30 8 1 5 9
M  V30 9 1 5 10 CFG=3
M  V30 10 1 6 11
M  V30 11 1 8 12
M  V30 12 1 9 13
M  V30 13 1 12 14
M  V30 14 1 12 15
M  V30 15 1 12 16
M  V30 16 1 8 11 CFG=3
M  V30 17 1 13 14
M  V30 END BOND
M  V30 BEGIN COLLECTION
M  V30 MDLV30/STERAC1 ATOMS=(3 3 5 8)
M  V30 END COLLECTION
M  V30 END CTAB
M  END
>  <Molecule Name>
drimenol

>  <Molecule Name 2>
drimenol

>  <Database>
Essential Oil Database

>  <InChI>
InChI=1S/C15H26O/c1-11-6-7-13-14(2,3)8-5-9-15(13,4)12(11)10-16/h6,12-13,16H,5,7-10H2,1-4H3/t12-,13-,15+/m1/s1

>  <InChI-Key>
HMWSKUKBAWWOJL-NFAWXSAZSA-N

>  <Smiles>
CC(C)(CCC1)[C@@H]2[C@]1(C)[C@H](CO)C(C)=CC2

>  <Molecular Formula>
C15H26O

$$$$
chavicol
Actelion Java MolfileCreator 2.0

  0  0  0  0  0  0              0 V3000
M  V30 BEGIN CTAB
M  V30 COUNTS 10 10 0 0 0
M  V30 BEGIN ATOM
M  V30 1 O 0.0 0.0 0.0 0
M  V30 2 C -0.1168 -1.4602 0.0 0
M  V30 3 C 1.1448 -2.0794 0.0 0
M  V30 4 C -1.6121 -2.0794 0.0 0
M  V30 5 C 1.028 -3.5397 0.0 0
M  V30 6 C -1.7289 -3.5397 0.0 0
M  V30 7 C -0.4672 -4.1588 0.0 0
M  V30 8 C -0.5841 -5.6191 0.0 0
M  V30 9 C -2.0794 -6.2616 0.0 0
M  V30 10 C -2.1962 -7.7219 0.0 0
M  V30 END ATOM
M  V30 BEGIN BOND
M  V30 1 1 1 2
M  V30 2 2 2 3
M  V30 3 1 2 4
M  V30 4 1 3 5
M  V30 5 2 4 6
M  V30 6 2 5 7
M  V30 7 1 7 8
M  V30 8 1 8 9
M  V30 9 2 9 10
M  V30 10 1 6 7
M  V30 END BOND
M  V30 END CTAB
M  END
>  <Molecule Name>
chavicol

>  <Molecule Name 2>
chavicol

>  <Database>
Essential Oil Database

>  <InChI>
InChI=1S/C9H10O/c1-2-3-8-4-6-9(10)7-5-8/h2,4-7,10H,1,3H2

>  <InChI-Key>
RGIBXDHONMXTLI-UHFFFAOYSA-N

>  <Smiles>
C=CCc(cc1)ccc1O

>  <Molecular Formula>
C9H10O

$$$$
junenol
Actelion Java MolfileCreator 2.0

  0  0  0  0  0  0              0 V3000
M  V30 BEGIN CTAB
M  V30 COUNTS 16 17 0 0 0
M  V30 BEGIN ATOM
M  V30 1 O 0.0 0.0 0.0 0
M  V30 2 C -0.1257 1.6101 0.0 0 CFG=1
M  V30 3 C 1.0189 2.4277 0.0 0 CFG=2
M  V30 4 C -1.522 2.4277 0.0 0 CFG=1
M  V30 5 C 2.1636 1.7485 0.0 0
M  V30 6 C 0.8931 4.0379 0.0 0 CFG=2
M  V30 7 C -2.9183 1.7485 0.0 0
M  V30 8 C -1.6478 4.0379 0.0 0
M  V30 9 C 2.0378 0.3899 0.0 0
M  V30 10 C 3.3083 2.5661 0.0 0
M  V30 11 C -0.5031 4.8555 0.0 0
M  V30 12 C 2.0378 4.8555 0.0 0
M  V30 13 C 0.7673 5.648 0.0 0
M  V30 14 C -3.0441 0.3899 0.0 0
M  V30 15 C -4.3146 2.5661 0.0 0
M  V30 16 C 3.1825 4.1762 0.0 0
M  V30 END ATOM
M  V30 BEGIN BOND
M  V30 1 1 2 1 CFG=3
M  V30 2 1 2 3
M  V30 3 1 2 4
M  V30 4 1 3 5 CFG=1
M  V30 5 1 3 6
M  V30 6 1 4 7 CFG=1
M  V30 7 1 4 8
M  V30 8 2 5 9
M  V30 9 1 5 10
M  V30 10 1 6 11
M  V30 11 1 6 12
M  V30 12 1 6 13 CFG=1
M  V30 13 1 7 14
M  V30 14 1 7 15
M  V30 15 1 10 16
M  V30 16 1 8 11
M  V30 17 1 12 16
M  V30 END BOND
M  V30 BEGIN COLLECTION
M  V30 MDLV30/STERAC1 ATOMS=(4 2 3 4 6)
M  V30 END COLLECTION
M  V30 END CTAB
M  END
>  <Molecule Name>
junenol

>  <Molecule Name 2>
junenol

>  <Database>
Essential Oil Database

>  <InChI>
InChI=1S/C15H26O/c1-10(2)12-7-9-15(4)8-5-6-11(3)13(15)14(12)16/h10,12-14,16H,3,5-9H2,1-2,4H3/t12-,13+,14-,15+/m1/s1

>  <InChI-Key>
MSJJKJCIFIGTJY-BARDWOONSA-N

>  <Smiles>
CC(C)[C@@H](CC[C@](C)(CCC1)[C@H]2C1=C)[C@H]2O

>  <Molecular Formula>
C15H26O

$$$$
curcumenol
Actelion Java MolfileCreator 2.0

  0  0  0  0  0  0              0 V3000
M  V30 BEGIN CTAB
M  V30 COUNTS 17 19 0 0 0
M  V30 BEGIN ATOM
M  V30 1 O 0.0 0.0 0.0 0
M  V30 2 C 1.0041 0.8345 0.0 0
M  V30 3 C -1.1214 -0.6781 0.0 0
M  V30 4 O 2.2299 1.5648 0.0 0
M  V30 5 C 1.3301 -0.5216 0.0 0
M  V30 6 C 0.1434 2.3081 0.0 0
M  V30 7 C -1.9821 0.8215 0.0 0
M  V30 8 C -2.3472 -1.5387 0.0 0
M  V30 9 C 0.0391 -1.4866 0.0 0
M  V30 10 C 2.582 -0.9519 0.0 0
M  V30 11 C -1.5257 2.4646 0.0 0
M  V30 12 C -3.5861 0.652 0.0 0
M  V30 13 C -3.8078 -0.7041 0.0 0
M  V30 14 C -2.2559 -2.8688 0.0 0
M  V30 15 C 2.7124 -2.282 0.0 0
M  V30 16 C 3.573 0.0782 0.0 0
M  V30 17 C -2.3864 3.8469 0.0 0
M  V30 END ATOM
M  V30 BEGIN BOND
M  V30 1 1 1 2
M  V30 2 1 1 3
M  V30 3 1 2 4
M  V30 4 1 2 5
M  V30 5 1 2 6
M  V30 6 1 3 7
M  V30 7 1 3 8
M  V30 8 1 3 9
M  V30 9 2 5 10
M  V30 10 2 6 11
M  V30 11 1 7 12
M  V30 12 1 8 13
M  V30 13 1 8 14
M  V30 14 1 10 15
M  V30 15 1 10 16
M  V30 16 1 11 17
M  V30 17 1 5 9
M  V30 18 1 7 11
M  V30 19 1 12 13
M  V30 END BOND
M  V30 END CTAB
M  END
>  <Molecule Name>
curcumenol

>  <Molecule Name 2>
curcumenol

>  <Database>
Essential Oil Database

>  <InChI>
InChI=1S/C15H22O2/c1-9(2)13-8-14-11(4)5-6-12(14)10(3)7-15(13,16)17-14/h7,11-12,16H,5-6,8H2,1-4H3

>  <InChI-Key>
ISFMXVMWEWLJGJ-UHFFFAOYSA-N

>  <Smiles>
CC(CCC1C(C)=C2)C1(CC1=C(C)C)OC21O

>  <Molecular Formula>
C15H22O2

$$$$
curdione
Actelion Java MolfileCreator 2.0

  0  0  0  0  0  0              0 V3000
M  V30 BEGIN CTAB
M  V30 COUNTS 17 17 0 0 0
M  V30 BEGIN ATOM
M  V30 1 O 0.0 0.0 0.0 0
M  V30 2 C 0.4063 -1.3715 0.0 0
M  V30 3 C 1.8414 -1.5493 0.0 0 CFG=2
M  V30 4 C -0.7492 -2.4383 0.0 0
M  V30 5 C 2.7431 -0.2285 0.0 0
M  V30 6 C 2.2478 -2.9209 0.0 0
M  V30 7 C -0.3428 -3.8099 0.0 0
M  V30 8 C 2.0827 1.3969 0.0 0
M  V30 9 C 4.1781 -0.4063 0.0 0
M  V30 10 C 3.6829 -3.0987 0.0 0
M  V30 11 C 1.0921 -3.9876 0.0 0
M  V30 12 C -1.4985 -4.8766 0.0 0
M  V30 13 O 4.5845 -1.7779 0.0 0
M  V30 14 C 4.0892 -4.4702 0.0 0 CFG=2
M  V30 15 C 1.4985 -5.3592 0.0 0
M  V30 16 C 2.9336 -5.537 0.0 0
M  V30 17 C 5.5243 -4.648 0.0 0
M  V30 END ATOM
M  V30 BEGIN BOND
M  V30 1 2 1 2
M  V30 2 1 2 3
M  V30 3 1 2 4
M  V30 4 1 3 5 CFG=3
M  V30 5 1 3 6
M  V30 6 1 4 7
M  V30 7 1 5 8
M  V30 8 1 5 9
M  V30 9 1 6 10
M  V30 10 2 7 11
M  V30 11 1 7 12
M  V30 12 2 10 13
M  V30 13 1 10 14
M  V30 14 1 11 15
M  V30 15 1 14 16
M  V30 16 1 14 17 CFG=1
M  V30 17 1 15 16
M  V30 END BOND
M  V30 BEGIN COLLECTION
M  V30 MDLV30/STERAC1 ATOMS=(2 3 14)
M  V30 END COLLECTION
M  V30 END CTAB
M  END
>  <Molecule Name>
curdione

>  <Molecule Name 2>
curdione

>  <Database>
Essential Oil Database

>  <InChI>
InChI=1S/C15H24O2/c1-10(2)13-9-14(16)12(4)7-5-6-11(3)8-15(13)17/h6,10,12-13H,5,7-9H2,1-4H3/b11-6+/t12-,13-/m0/s1

>  <InChI-Key>
KDPFMRXIVDLQKX-NHFJXKHHSA-N

>  <Smiles>
CC(C)[C@H](CC([C@@H](C)CC/C=C(\C)/C1)=O)C1=O

>  <Molecular Formula>
C15H24O2

$$$$
furanodienone
Actelion Java MolfileCreator 2.0

  0  0  0  0  0  0              0 V3000
M  V30 BEGIN CTAB
M  V30 COUNTS 17 18 0 0 0
M  V30 BEGIN ATOM
M  V30 1 O 0.0 0.0 0.0 0
M  V30 2 C 0.4686 -1.339 0.0 0
M  V30 3 C -0.6293 -2.3969 0.0 0
M  V30 4 C 1.8881 -1.4863 0.0 0
M  V30 5 C -0.1606 -3.736 0.0 0
M  V30 6 C -2.3434 -2.3434 0.0 0
M  V30 7 C 2.3568 -2.8254 0.0 0
M  V30 8 O -1.4997 -4.5529 0.0 0
M  V30 9 C 1.2587 -3.8833 0.0 0
M  V30 10 C -2.9326 -3.736 0.0 0
M  V30 11 C -3.4146 -1.0043 0.0 0
M  V30 12 C 3.7762 -2.9727 0.0 0
M  V30 13 C 2.1291 -4.2717 0.0 0
M  V30 14 C 1.7274 -5.2224 0.0 0
M  V30 15 C 4.2449 -4.3118 0.0 0
M  V30 16 C 3.1468 -5.3697 0.0 0
M  V30 17 C 0.6293 -6.2803 0.0 0
M  V30 END ATOM
M  V30 BEGIN BOND
M  V30 1 2 1 2
M  V30 2 1 2 3
M  V30 3 1 2 4
M  V30 4 2 3 5
M  V30 5 1 3 6
M  V30 6 2 4 7
M  V30 7 1 5 8
M  V30 8 1 5 9
M  V30 9 2 6 10
M  V30 10 1 6 11
M  V30 11 1 7 12
M  V30 12 1 7 13
M  V30 13 1 9 14
M  V30 14 1 12 15
M  V30 15 2 14 16
M  V30 16 1 14 17
M  V30 17 1 8 10
M  V30 18 1 15 16
M  V30 END BOND
M  V30 END CTAB
M  END
>  <Molecule Name>
furanodienone

>  <Molecule Name 2>
furanodienone

>  <Database>
Essential Oil Database

>  <InChI>
InChI=1S/C15H18O2/c1-10-5-4-6-11(2)8-14-15(13(16)7-10)12(3)9-17-14/h6-7,9H,4-5,8H2,1-3H3/b10-7+,11-6-

>  <InChI-Key>
XVOHELPNOXGRBQ-SJUGDSPGSA-N

>  <Smiles>
Cc1c[o]c(C/C(\C)=C\CC/C(\C)=C2)c1C\2=O

>  <Molecular Formula>
C15H18O2

$$$$
furanogermenone
Actelion Java MolfileCreator 2.0

  0  0  0  0  0  0              0 V3000
M  V30 BEGIN CTAB
M  V30 COUNTS 17 18 0 0 0
M  V30 BEGIN ATOM
M  V30 1 O 0.0 0.0 0.0 0
M  V30 2 C -1.0607 -1.0219 0.0 0
M  V30 3 C -0.6079 -2.3155 0.0 0 CFG=2
M  V30 4 C -2.6906 -0.6209 0.0 0
M  V30 5 C 0.7632 -2.4578 0.0 0
M  V30 6 C -2.212 -2.6001 0.0 0
M  V30 7 C -3.7514 -1.6428 0.0 0
M  V30 8 C 1.2159 -3.7514 0.0 0
M  V30 9 C -3.2986 -2.9364 0.0 0
M  V30 10 C -5.4072 -1.5911 0.0 0
M  V30 11 C 0.1552 -4.7734 0.0 0
M  V30 12 O -4.5922 -3.7255 0.0 0
M  V30 13 C -1.9274 -3.0787 0.0 0
M  V30 14 C -5.9764 -2.9364 0.0 0
M  V30 15 C -6.4421 -0.2975 0.0 0
M  V30 16 C -1.4747 -4.3723 0.0 0
M  V30 17 C -2.5354 -5.3943 0.0 0
M  V30 END ATOM
M  V30 BEGIN BOND
M  V30 1 2 1 2
M  V30 2 1 2 3
M  V30 3 1 2 4
M  V30 4 1 3 5
M  V30 5 1 3 6 CFG=3
M  V30 6 1 4 7
M  V30 7 1 5 8
M  V30 8 2 7 9
M  V30 9 1 7 10
M  V30 10 1 8 11
M  V30 11 1 9 12
M  V30 12 1 9 13
M  V30 13 2 10 14
M  V30 14 1 10 15
M  V30 15 2 11 16
M  V30 16 1 16 17
M  V30 17 1 12 14
M  V30 18 1 13 16
M  V30 END BOND
M  V30 BEGIN COLLECTION
M  V30 MDLV30/STERAC1 ATOMS=(1 3)
M  V30 END COLLECTION
M  V30 END CTAB
M  END
>  <Molecule Name>
furanogermenone

>  <Molecule Name 2>
furanogermenone

>  <Database>
Essential Oil Database

>  <InChI>
InChI=1S/C15H20O2/c1-10-5-4-6-11(2)14(16)8-13-12(3)9-17-15(13)7-10/h5,9,11H,4,6-8H2,1-3H3/b10-5+/t11-/m0/s1

>  <InChI-Key>
ZLESWHXADLWJPV-UAWPZABVSA-N

>  <Smiles>
CC(CC/C=C(/C)\Cc1c(C2)c(C)c[o]1)C2=O

>  <Molecular Formula>
C15H20O2

$$$$
zedoarol
Actelion Java MolfileCreator 2.0

  0  0  0  0  0  0              0 V3000
M  V30 BEGIN CTAB
M  V30 COUNTS 18 20 0 0 0
M  V30 BEGIN ATOM
M  V30 1 O 0.0 0.0 0.0 0
M  V30 2 C -0.1243 1.5918 0.0 0
M  V30 3 C 1.057 2.4002 0.0 0
M  V30 4 C -1.5545 2.4002 0.0 0 CFG=1
M  V30 5 C 1.2809 3.9547 0.0 0
M  V30 6 C 2.1763 1.7286 0.0 0
M  V30 7 O -1.6043 1.057 0.0 0
M  V30 8 C -2.0271 3.9547 0.0 0 CFG=2
M  V30 9 C -2.9225 1.7286 0.0 0 CFG=2
M  V30 10 O 2.6116 4.2159 0.0 0
M  V30 11 C 0.286 5.1984 0.0 0
M  V30 12 C 3.1339 2.7857 0.0 0
M  V30 13 C 2.1888 0.3979 0.0 0
M  V30 14 C -1.256 5.1984 0.0 0
M  V30 15 C -3.6065 4.2159 0.0 0
M  V30 16 C -4.1289 2.7857 0.0 0
M  V30 17 C -3.1837 0.3979 0.0 0
M  V30 18 C -2.0644 6.6286 0.0 0
M  V30 END ATOM
M  V30 BEGIN BOND
M  V30 1 2 1 2
M  V30 2 1 2 3
M  V30 3 1 2 4
M  V30 4 2 3 5
M  V30 5 1 3 6
M  V30 6 1 4 7 CFG=1
M  V30 7 1 4 8
M  V30 8 1 4 9
M  V30 9 1 5 10
M  V30 10 1 5 11
M  V30 11 2 6 12
M  V30 12 1 6 13
M  V30 13 1 8 14 CFG=1
M  V30 14 1 8 15
M  V30 15 1 9 16
M  V30 16 1 9 17 CFG=1
M  V30 17 2 14 18
M  V30 18 1 10 12
M  V30 19 1 11 14
M  V30 20 1 15 16
M  V30 END BOND
M  V30 BEGIN COLLECTION
M  V30 MDLV30/STERAC1 ATOMS=(3 4 8 9)
M  V30 END COLLECTION
M  V30 END CTAB
M  END
>  <Molecule Name>
zedoarol

>  <Molecule Name 2>
zedoarol

>  <Database>
Essential Oil Database

>  <InChI>
InChI=1S/C15H18O3/c1-8-6-12-13(9(2)7-18-12)14(16)15(17)10(3)4-5-11(8)15/h7,10-11,17H,1,4-6H2,2-3H3/t10-,11-,15-/m0/s1

>  <InChI-Key>
CKDRPCYJCDMPFO-PGUXBMHVSA-N

>  <Smiles>
C[C@@H](CC[C@H]1C(Cc([o]cc2C)c2C2=O)=C)[C@]12O

>  <Molecular Formula>
C15H18O3

$$$$
zerumbone
Actelion Java MolfileCreator 2.0

  0  0  0  0  0  0              0 V3000
M  V30 BEGIN CTAB
M  V30 COUNTS 16 16 0 0 0
M  V30 BEGIN ATOM
M  V30 1 O 0.0 0.0 0.0 0
M  V30 2 C -1.498 0.4824 0.0 0
M  V30 3 C -2.5644 -0.3808 0.0 0
M  V30 4 C -2.0566 1.9677 0.0 0
M  V30 5 C -4.0625 0.1015 0.0 0
M  V30 6 C -2.2597 -1.6123 0.0 0
M  V30 7 C -3.6816 2.5644 0.0 0
M  V30 8 C -5.1289 -0.7617 0.0 0
M  V30 9 C -4.5576 3.8467 0.0 0
M  V30 10 C -6.627 -0.2793 0.0 0
M  V30 11 C -6.043 3.542 0.0 0
M  V30 12 C -5.2686 5.2813 0.0 0
M  V30 13 C -3.4531 4.6719 0.0 0
M  V30 14 C -7.1856 1.206 0.0 0
M  V30 15 C -6.208 2.247 0.0 0
M  V30 16 C -8.6963 1.6631 0.0 0
M  V30 END ATOM
M  V30 BEGIN BOND
M  V30 1 2 1 2
M  V30 2 1 2 3
M  V30 3 1 2 4
M  V30 4 2 3 5
M  V30 5 1 3 6
M  V30 6 2 4 7
M  V30 7 1 5 8
M  V30 8 1 7 9
M  V30 9 1 8 10
M  V30 10 1 9 11
M  V30 11 1 9 12
M  V30 12 1 9 13
M  V30 13 1 10 14
M  V30 14 1 11 15
M  V30 15 1 14 16
M  V30 16 2 14 15
M  V30 END BOND
M  V30 END CTAB
M  END
>  <Molecule Name>
zerumbone

>  <Molecule Name 2>
zerumbone

>  <Database>
Essential Oil Database

>  <InChI>
InChI=1S/C15H22O/c1-12-6-5-7-13(2)14(16)9-11-15(3,4)10-8-12/h7-9,11H,5-6,10H2,1-4H3/b11-9+,12-8+,13-7+

>  <InChI-Key>
GIHNTRQPEMKFKO-SKTNYSRSSA-N

>  <Smiles>
CC(C)(C/C=C(\C)/CC/C=C1\C)/C=C/C\1=O

>  <Molecular Formula>
C15H22O

$$$$
(e)-2-decenyl acetate
Actelion Java MolfileCreator 2.0

  0  0  0  0  0  0              0 V3000
M  V30 BEGIN CTAB
M  V30 COUNTS 14 13 0 0 0
M  V30 BEGIN ATOM
M  V30 1 O 0.0 0.0 0.0 0
M  V30 2 C 1.2664 -0.6274 0.0 0
M  V30 3 O 2.5329 0.3369 0.0 0
M  V30 4 C 1.1502 -2.0914 0.0 0
M  V30 5 C 3.7994 -0.2904 0.0 0
M  V30 6 C 5.0659 0.6739 0.0 0
M  V30 7 C 6.3323 0.0464 0.0 0
M  V30 8 C 7.5988 1.0108 0.0 0
M  V30 9 C 8.8653 0.3834 0.0 0
M  V30 10 C 10.1318 1.3478 0.0 0
M  V30 11 C 11.3983 0.7203 0.0 0
M  V30 12 C 12.6647 1.6847 0.0 0
M  V30 13 C 13.9312 1.0573 0.0 0
M  V30 14 C 15.1977 2.0217 0.0 0
M  V30 END ATOM
M  V30 BEGIN BOND
M  V30 1 2 1 2
M  V30 2 1 2 3
M  V30 3 1 2 4
M  V30 4 1 3 5
M  V30 5 1 5 6
M  V30 6 2 6 7
M  V30 7 1 7 8
M  V30 8 1 8 9
M  V30 9 1 9 10
M  V30 10 1 10 11
M  V30 11 1 11 12
M  V30 12 1 12 13
M  V30 13 1 13 14
M  V30 END BOND
M  V30 END CTAB
M  END
>  <Molecule Name>
(e)-2-decenyl acetate

>  <Molecule Name 2>
(e)-2-decenyl acetate

>  <Database>
Essential Oil Database

>  <InChI>
InChI=1S/C12H22O2/c1-3-4-5-6-7-8-9-10-11-14-12(2)13/h9-10H,3-8,11H2,1-2H3/b10-9+

>  <InChI-Key>
LUMRROIRFJRWNX-MDZDMXLPSA-N

>  <Smiles>
CCCCCCC/C=C/COC(C)=O

>  <Molecular Formula>
C12H22O2

$$$$
(e)-2-dodecenol
Actelion Java MolfileCreator 2.0

  0  0  0  0  0  0              0 V3000
M  V30 BEGIN CTAB
M  V30 COUNTS 13 12 0 0 0
M  V30 BEGIN ATOM
M  V30 1 O 0.0 0.0 0.0 0
M  V30 2 C -0.1353 1.7328 0.0 0
M  V30 3 C 1.0965 2.6127 0.0 0
M  V30 4 C 2.3284 1.8817 0.0 0
M  V30 5 C 3.5604 2.7752 0.0 0
M  V30 6 C 4.7923 2.0441 0.0 0
M  V30 7 C 6.0242 2.9241 0.0 0
M  V30 8 C 7.2562 2.1931 0.0 0
M  V30 9 C 8.4881 3.073 0.0 0
M  V30 10 C 9.72 2.342 0.0 0
M  V30 11 C 10.952 3.2219 0.0 0
M  V30 12 C 12.1839 2.4909 0.0 0
M  V30 13 C 13.4158 3.3844 0.0 0
M  V30 END ATOM
M  V30 BEGIN BOND
M  V30 1 1 1 2
M  V30 2 1 2 3
M  V30 3 2 3 4
M  V30 4 1 4 5
M  V30 5 1 5 6
M  V30 6 1 6 7
M  V30 7 1 7 8
M  V30 8 1 8 9
M  V30 9 1 9 10
M  V30 10 1 10 11
M  V30 11 1 11 12
M  V30 12 1 12 13
M  V30 END BOND
M  V30 END CTAB
M  END
>  <Molecule Name>
(e)-2-dodecenol

>  <Molecule Name 2>
(e)-2-dodecenol

>  <Database>
Essential Oil Database

>  <InChI>
InChI=1S/C12H24O/c1-2-3-4-5-6-7-8-9-10-11-12-13/h10-11,13H,2-9,12H2,1H3/b11-10+

>  <InChI-Key>
MLRYPOCSLBIUHY-ZHACJKMWSA-N

>  <Smiles>
CCCCCCCCC/C=C/CO

>  <Molecular Formula>
C12H24O

$$$$
(e)-2-tetradecenol
Actelion Java MolfileCreator 2.0

  0  0  0  0  0  0              0 V3000
M  V30 BEGIN CTAB
M  V30 COUNTS 15 14 0 0 0
M  V30 BEGIN ATOM
M  V30 1 O 0.0 0.0 0.0 0
M  V30 2 C -0.1357 1.7379 0.0 0
M  V30 3 C 1.0997 2.6204 0.0 0
M  V30 4 C 2.3353 1.8872 0.0 0
M  V30 5 C 3.5708 2.7698 0.0 0
M  V30 6 C 4.8064 2.0366 0.0 0
M  V30 7 C 6.0419 2.9191 0.0 0
M  V30 8 C 7.2775 2.1859 0.0 0
M  V30 9 C 8.513 3.0685 0.0 0
M  V30 10 C 9.7486 2.3353 0.0 0
M  V30 11 C 10.9841 3.2178 0.0 0
M  V30 12 C 12.2197 2.4846 0.0 0
M  V30 13 C 13.4552 3.3672 0.0 0
M  V30 14 C 14.6908 2.634 0.0 0
M  V30 15 C 15.9263 3.5301 0.0 0
M  V30 END ATOM
M  V30 BEGIN BOND
M  V30 1 1 1 2
M  V30 2 1 2 3
M  V30 3 2 3 4
M  V30 4 1 4 5
M  V30 5 1 5 6
M  V30 6 1 6 7
M  V30 7 1 7 8
M  V30 8 1 8 9
M  V30 9 1 9 10
M  V30 10 1 10 11
M  V30 11 1 11 12
M  V30 12 1 12 13
M  V30 13 1 13 14
M  V30 14 1 14 15
M  V30 END BOND
M  V30 END CTAB
M  END
>  <Molecule Name>
(e)-2-tetradecenol

>  <Molecule Name 2>
(e)-2-tetradecenol

>  <Database>
Essential Oil Database

>  <InChI>
InChI=1S/C14H28O/c1-2-3-4-5-6-7-8-9-10-11-12-13-14-15/h12-13,15H,2-11,14H2,1H3/b13-12+

>  <InChI-Key>
UNJNVKPKKZTPPR-OUKQBFOZSA-N

>  <Smiles>
CCCCCCCCCCC/C=C/CO

>  <Molecular Formula>
C14H28O

$$$$
beta-thujaplicin
Actelion Java MolfileCreator 2.0

  0  0  0  0  0  0              0 V3000
M  V30 BEGIN CTAB
M  V30 COUNTS 12 12 0 0 0
M  V30 BEGIN ATOM
M  V30 1 O 0.0 0.0 0.0 0
M  V30 2 C 0.5554 1.4195 0.0 0
M  V30 3 C -0.432 2.654 0.0 0
M  V30 4 C 1.8886 1.543 0.0 0
M  V30 5 O -1.975 2.4318 0.0 0
M  V30 6 C -0.2098 4.197 0.0 0
M  V30 7 C 2.654 2.7774 0.0 0
M  V30 8 C 0.9628 4.987 0.0 0
M  V30 9 C 2.1849 4.3205 0.0 0
M  V30 10 C 0.8394 6.5671 0.0 0
M  V30 11 C 1.9627 7.3818 0.0 0
M  V30 12 C -0.5308 7.3818 0.0 0
M  V30 END ATOM
M  V30 BEGIN BOND
M  V30 1 2 1 2
M  V30 2 1 2 3
M  V30 3 1 2 4
M  V30 4 1 3 5
M  V30 5 2 3 6
M  V30 6 2 4 7
M  V30 7 1 6 8
M  V30 8 1 7 9
M  V30 9 1 8 10
M  V30 10 1 10 11
M  V30 11 1 10 12
M  V30 12 2 8 9
M  V30 END BOND
M  V30 END CTAB
M  END
>  <Molecule Name>
beta-thujaplicin

>  <Molecule Name 2>
beta-thujaplicin

>  <Database>
Essential Oil Database

>  <InChI>
InChI=1S/C10H12O2/c1-7(2)8-4-3-5-9(11)10(12)6-8/h3-7H,1-2H3,(H,11,12)

>  <InChI-Key>
FUWUEFKEXZQKKA-UHFFFAOYSA-N

>  <Smiles>
CC(C)C(C=C1O)=CC=CC1=O

>  <Molecular Formula>
C10H12O2

$$$$
fenchyl acetate
Actelion Java MolfileCreator 2.0

  0  0  0  0  0  0              0 V3000
M  V30 BEGIN CTAB
M  V30 COUNTS 14 15 0 0 0
M  V30 BEGIN ATOM
M  V30 1 O 0.0 0.0 0.0 0
M  V30 2 C -0.1275 -1.3772 0.0 0
M  V30 3 O 1.0329 -2.0531 0.0 0
M  V30 4 C -1.543 -2.0531 0.0 0
M  V30 5 C 2.1933 -1.2242 0.0 0
M  V30 6 C 3.3538 -1.9 0.0 0 CFG=2
M  V30 7 C 2.0658 0.408 0.0 0
M  V30 8 C 2.8182 -0.2677 0.0 0
M  V30 9 C 4.5142 -1.0711 0.0 0
M  V30 10 C 3.2263 -3.2773 0.0 0
M  V30 11 C 3.2263 1.2497 0.0 0 CFG=1
M  V30 12 C 1.1987 1.798 0.0 0
M  V30 13 C 0.4335 0.5866 0.0 0
M  V30 14 C 4.3867 0.561 0.0 0
M  V30 END ATOM
M  V30 BEGIN BOND
M  V30 1 2 1 2
M  V30 2 1 2 3
M  V30 3 1 2 4
M  V30 4 1 3 5
M  V30 5 1 5 6
M  V30 6 1 5 7
M  V30 7 1 6 8
M  V30 8 1 6 9
M  V30 9 1 6 10 CFG=1
M  V30 10 1 7 11
M  V30 11 1 7 12
M  V30 12 1 7 13
M  V30 13 1 9 14
M  V30 14 1 11 8 CFG=1
M  V30 15 1 11 14
M  V30 END BOND
M  V30 BEGIN COLLECTION
M  V30 MDLV30/STERAC1 ATOMS=(2 6 11)
M  V30 END COLLECTION
M  V30 END CTAB
M  END
>  <Molecule Name>
fenchyl acetate

>  <Molecule Name 2>
fenchyl acetate

>  <Database>
Essential Oil Database

>  <InChI>
InChI=1S/C12H20O2/c1-8(13)14-10-11(2,3)9-5-6-12(10,4)7-9/h9-10H,5-7H2,1-4H3/t9-,10?,12+/m1/s1

>  <InChI-Key>
JUWUWIGZUVEFQB-MAZPRZIYSA-N

>  <Smiles>
CC(C)([C@H]1C[C@]2(C)CC1)C2OC(C)=O

>  <Molecular Formula>
C12H20O2

$$$$
methyl isobutyl ketone
Actelion Java MolfileCreator 2.0

  0  0  0  0  0  0              0 V3000
M  V30 BEGIN CTAB
M  V30 COUNTS 7 6 0 0 0
M  V30 BEGIN ATOM
M  V30 1 O 0.0 0.0 0.0 0
M  V30 2 C -0.8342 -1.1861 0.0 0
M  V30 3 C -0.1433 -2.3722 0.0 0
M  V30 4 C -2.5026 -1.0557 0.0 0
M  V30 5 C -0.9906 -3.5583 0.0 0
M  V30 6 C -0.2997 -4.7445 0.0 0
M  V30 7 C -2.659 -3.428 0.0 0
M  V30 END ATOM
M  V30 BEGIN BOND
M  V30 1 2 1 2
M  V30 2 1 2 3
M  V30 3 1 2 4
M  V30 4 1 3 5
M  V30 5 1 5 6
M  V30 6 1 5 7
M  V30 END BOND
M  V30 END CTAB
M  END
>  <Molecule Name>
methyl isobutyl ketone

>  <Molecule Name 2>
methyl isobutyl ketone

>  <Database>
Essential Oil Database

>  <InChI>
InChI=1S/C6H12O/c1-5(2)4-6(3)7/h5H,4H2,1-3H3

>  <InChI-Key>
NTIZESTWPVYFNL-UHFFFAOYSA-N

>  <Smiles>
CC(C)CC(C)=O

>  <Molecular Formula>
C6H12O

$$$$
amyl acetate
Actelion Java MolfileCreator 2.0

  0  0  0  0  0  0              0 V3000
M  V30 BEGIN CTAB
M  V30 COUNTS 9 8 0 0 0
M  V30 BEGIN ATOM
M  V30 1 O 0.0 0.0 0.0 0
M  V30 2 C 1.2226 0.8733 0.0 0
M  V30 3 O 2.4452 0.1477 0.0 0
M  V30 4 C 1.0882 2.593 0.0 0
M  V30 5 C 3.6678 1.021 0.0 0
M  V30 6 C 4.8905 0.2955 0.0 0
M  V30 7 C 6.1131 1.1688 0.0 0
M  V30 8 C 7.3357 0.4433 0.0 0
M  V30 9 C 8.5583 1.3166 0.0 0
M  V30 END ATOM
M  V30 BEGIN BOND
M  V30 1 2 1 2
M  V30 2 1 2 3
M  V30 3 1 2 4
M  V30 4 1 3 5
M  V30 5 1 5 6
M  V30 6 1 6 7
M  V30 7 1 7 8
M  V30 8 1 8 9
M  V30 END BOND
M  V30 END CTAB
M  END
>  <Molecule Name>
amyl acetate

>  <Molecule Name 2>
amyl acetate

>  <Database>
Essential Oil Database

>  <InChI>
InChI=1S/C7H14O2/c1-3-4-5-6-9-7(2)8/h3-6H2,1-2H3

>  <InChI-Key>
PGMYKACGEOXYJE-UHFFFAOYSA-N

>  <Smiles>
CCCCCOC(C)=O

>  <Molecular Formula>
C7H14O2

$$$$
cyclohexyl cyclohexane
Actelion Java MolfileCreator 2.0

  0  0  0  0  0  0              0 V3000
M  V30 BEGIN CTAB
M  V30 COUNTS 12 13 0 0 0
M  V30 BEGIN ATOM
M  V30 1 C 0.0 0.0 0.0 0
M  V30 2 C -0.1265 1.6201 0.0 0
M  V30 3 C 1.1518 -0.6708 0.0 0
M  V30 4 C -1.4049 -0.6708 0.0 0
M  V30 5 C -1.5315 2.4429 0.0 0
M  V30 6 C 1.0252 2.4429 0.0 0
M  V30 7 C 1.0252 -2.0378 0.0 0
M  V30 8 C -1.5315 -2.0378 0.0 0
M  V30 9 C -1.6581 4.063 0.0 0
M  V30 10 C 0.8986 4.063 0.0 0
M  V30 11 C -0.3797 -2.7213 0.0 0
M  V30 12 C -0.5063 4.8858 0.0 0
M  V30 END ATOM
M  V30 BEGIN BOND
M  V30 1 1 1 2
M  V30 2 1 1 3
M  V30 3 1 1 4
M  V30 4 1 2 5
M  V30 5 1 2 6
M  V30 6 1 3 7
M  V30 7 1 4 8
M  V30 8 1 5 9
M  V30 9 1 6 10
M  V30 10 1 7 11
M  V30 11 1 9 12
M  V30 12 1 8 11
M  V30 13 1 10 12
M  V30 END BOND
M  V30 END CTAB
M  END
>  <Molecule Name>
cyclohexyl cyclohexane

>  <Molecule Name 2>
cyclohexyl cyclohexane

>  <Database>
Essential Oil Database

>  <InChI>
InChI=1S/C12H22/c1-3-7-11(8-4-1)12-9-5-2-6-10-12/h11-12H,1-10H2

>  <InChI-Key>
WVIIMZNLDWSIRH-UHFFFAOYSA-N

>  <Smiles>
C(CC1)CCC1C1CCCCC1

>  <Molecular Formula>
C12H22

$$$$
ethyl heptadecanoate
Actelion Java MolfileCreator 2.0

  0  0  0  0  0  0              0 V3000
M  V30 BEGIN CTAB
M  V30 COUNTS 21 20 0 0 0
M  V30 BEGIN ATOM
M  V30 1 O 0.0 0.0 0.0 0
M  V30 2 C -0.1211 1.5512 0.0 0
M  V30 3 O 0.9816 2.3389 0.0 0
M  V30 4 C -1.4664 2.3389 0.0 0
M  V30 5 C 2.0844 1.6845 0.0 0
M  V30 6 C -2.8116 1.6845 0.0 0
M  V30 7 C 3.1873 2.4722 0.0 0
M  V30 8 C -4.1568 2.4722 0.0 0
M  V30 9 C -5.502 1.8178 0.0 0
M  V30 10 C -6.8472 2.6177 0.0 0
M  V30 11 C -8.1924 1.9632 0.0 0
M  V30 12 C -9.5377 2.751 0.0 0
M  V30 13 C -10.8829 2.0965 0.0 0
M  V30 14 C -12.2281 2.8843 0.0 0
M  V30 15 C -13.5733 2.2299 0.0 0
M  V30 16 C -14.9185 3.0176 0.0 0
M  V30 17 C -16.2637 2.3632 0.0 0
M  V30 18 C -17.6089 3.163 0.0 0
M  V30 19 C -18.9542 2.5086 0.0 0
M  V30 20 C -20.2994 3.2963 0.0 0
M  V30 21 C -21.6446 2.6419 0.0 0
M  V30 END ATOM
M  V30 BEGIN BOND
M  V30 1 2 1 2
M  V30 2 1 2 3
M  V30 3 1 2 4
M  V30 4 1 3 5
M  V30 5 1 4 6
M  V30 6 1 5 7
M  V30 7 1 6 8
M  V30 8 1 8 9
M  V30 9 1 9 10
M  V30 10 1 10 11
M  V30 11 1 11 12
M  V30 12 1 12 13
M  V30 13 1 13 14
M  V30 14 1 14 15
M  V30 15 1 15 16
M  V30 16 1 16 17
M  V30 17 1 17 18
M  V30 18 1 18 19
M  V30 19 1 19 20
M  V30 20 1 20 21
M  V30 END BOND
M  V30 END CTAB
M  END
>  <Molecule Name>
ethyl heptadecanoate

>  <Molecule Name 2>
ethyl heptadecanoate

>  <Database>
Essential Oil Database

>  <InChI>
InChI=1S/C19H38O2/c1-3-5-6-7-8-9-10-11-12-13-14-15-16-17-18-19(20)21-4-2/h3-18H2,1-2H3

>  <InChI-Key>
KNXMUFRWYNVISA-UHFFFAOYSA-N

>  <Smiles>
CCCCCCCCCCCCCCCCC(OCC)=O

>  <Molecular Formula>
C19H38O2

$$$$
ethyl pentadecanoate
Actelion Java MolfileCreator 2.0

  0  0  0  0  0  0              0 V3000
M  V30 BEGIN CTAB
M  V30 COUNTS 19 18 0 0 0
M  V30 BEGIN ATOM
M  V30 1 O 0.0 0.0 0.0 0
M  V30 2 C -0.1214 1.5547 0.0 0
M  V30 3 O 0.9838 2.3442 0.0 0
M  V30 4 C -1.4697 2.3442 0.0 0
M  V30 5 C 2.0891 1.6883 0.0 0
M  V30 6 C -2.8179 1.6883 0.0 0
M  V30 7 C 3.1945 2.4778 0.0 0
M  V30 8 C -4.1662 2.4778 0.0 0
M  V30 9 C -5.5145 1.8219 0.0 0
M  V30 10 C -6.8627 2.6114 0.0 0
M  V30 11 C -8.211 1.9555 0.0 0
M  V30 12 C -9.5593 2.7451 0.0 0
M  V30 13 C -10.9075 2.0891 0.0 0
M  V30 14 C -12.2558 2.8787 0.0 0
M  V30 15 C -13.604 2.2228 0.0 0
M  V30 16 C -14.9523 3.0123 0.0 0
M  V30 17 C -16.3006 2.3564 0.0 0
M  V30 18 C -17.6488 3.158 0.0 0
M  V30 19 C -18.9971 2.5021 0.0 0
M  V30 END ATOM
M  V30 BEGIN BOND
M  V30 1 2 1 2
M  V30 2 1 2 3
M  V30 3 1 2 4
M  V30 4 1 3 5
M  V30 5 1 4 6
M  V30 6 1 5 7
M  V30 7 1 6 8
M  V30 8 1 8 9
M  V30 9 1 9 10
M  V30 10 1 10 11
M  V30 11 1 11 12
M  V30 12 1 12 13
M  V30 13 1 13 14
M  V30 14 1 14 15
M  V30 15 1 15 16
M  V30 16 1 16 17
M  V30 17 1 17 18
M  V30 18 1 18 19
M  V30 END BOND
M  V30 END CTAB
M  END
>  <Molecule Name>
ethyl pentadecanoate

>  <Molecule Name 2>
ethyl pentadecanoate

>  <Database>
Essential Oil Database

>  <InChI>
InChI=1S/C17H34O2/c1-3-5-6-7-8-9-10-11-12-13-14-15-16-17(18)19-4-2/h3-16H2,1-2H3

>  <InChI-Key>
PTEYJUIKYIKULL-UHFFFAOYSA-N

>  <Smiles>
CCCCCCCCCCCCCCC(OCC)=O

>  <Molecular Formula>
C17H34O2

$$$$
pentadecene
Actelion Java MolfileCreator 2.0

  0  0  0  0  0  0              0 V3000
M  V30 BEGIN CTAB
M  V30 COUNTS 15 14 0 0 0
M  V30 BEGIN ATOM
M  V30 1 C 0.0 0.0 0.0 0
M  V30 2 C -1.4911 0.862 0.0 0
M  V30 3 C 1.2581 0.862 0.0 0
M  V30 4 C 2.5162 0.1747 0.0 0
M  V30 5 C 3.7743 1.0367 0.0 0
M  V30 6 C 5.0325 0.3494 0.0 0
M  V30 7 C 6.2906 1.2115 0.0 0
M  V30 8 C 7.5487 0.5242 0.0 0
M  V30 9 C 8.8068 1.3862 0.0 0
M  V30 10 C 10.065 0.6989 0.0 0
M  V30 11 C 11.3231 1.561 0.0 0
M  V30 12 C 12.5812 0.8736 0.0 0
M  V30 13 C 13.8393 1.7357 0.0 0
M  V30 14 C 15.0975 1.0484 0.0 0
M  V30 15 C 16.3556 1.9104 0.0 0
M  V30 END ATOM
M  V30 BEGIN BOND
M  V30 1 2 1 2
M  V30 2 1 1 3
M  V30 3 1 3 4
M  V30 4 1 4 5
M  V30 5 1 5 6
M  V30 6 1 6 7
M  V30 7 1 7 8
M  V30 8 1 8 9
M  V30 9 1 9 10
M  V30 10 1 10 11
M  V30 11 1 11 12
M  V30 12 1 12 13
M  V30 13 1 13 14
M  V30 14 1 14 15
M  V30 END BOND
M  V30 END CTAB
M  END
>  <Molecule Name>
pentadecene

>  <Molecule Name 2>
pentadecene

>  <Database>
Essential Oil Database

>  <InChI>
InChI=1S/C15H30/c1-3-5-7-9-11-13-15-14-12-10-8-6-4-2/h3H,1,4-15H2,2H3

>  <InChI-Key>
PJLHTVIBELQURV-UHFFFAOYSA-N

>  <Smiles>
CCCCCCCCCCCCCC=C

>  <Molecular Formula>
C15H30

$$$$
phenyl methylcarbinylacetate
Actelion Java MolfileCreator 2.0

  0  0  0  0  0  0              0 V3000
M  V30 BEGIN CTAB
M  V30 COUNTS 12 12 0 0 0
M  V30 BEGIN ATOM
M  V30 1 O 0.0 0.0 0.0 0
M  V30 2 C -0.1243 -1.3434 0.0 0
M  V30 3 O -1.5051 -2.0151 0.0 0
M  V30 4 C 1.0075 -2.0151 0.0 0
M  V30 5 C -2.8859 -1.1941 0.0 0
M  V30 6 C 2.1395 -1.1941 0.0 0
M  V30 7 C -4.2666 -1.8659 0.0 0
M  V30 8 C -3.0103 0.398 0.0 0
M  V30 9 C 3.2715 -1.8659 0.0 0
M  V30 10 C -5.6474 -1.0449 0.0 0
M  V30 11 C -4.391 1.219 0.0 0
M  V30 12 C -5.7718 0.5473 0.0 0
M  V30 END ATOM
M  V30 BEGIN BOND
M  V30 1 2 1 2
M  V30 2 1 2 3
M  V30 3 1 2 4
M  V30 4 1 3 5
M  V30 5 1 4 6
M  V30 6 2 5 7
M  V30 7 1 5 8
M  V30 8 1 6 9
M  V30 9 1 7 10
M  V30 10 2 8 11
M  V30 11 2 10 12
M  V30 12 1 11 12
M  V30 END BOND
M  V30 END CTAB
M  END
>  <Molecule Name>
phenyl methylcarbinylacetate

>  <Molecule Name 2>
phenyl methylcarbinylacetate

>  <Database>
Essential Oil Database

>  <InChI>
InChI=1S/C10H12O2/c1-2-6-10(11)12-9-7-4-3-5-8-9/h3-5,7-8H,2,6H2,1H3

>  <InChI-Key>
IGVPBCZDHMIOJH-UHFFFAOYSA-N

>  <Smiles>
CCCC(Oc1ccccc1)=O

>  <Molecular Formula>
C10H12O2

$$$$
methyl eicosanoate
Actelion Java MolfileCreator 2.0

  0  0  0  0  0  0              0 V3000
M  V30 BEGIN CTAB
M  V30 COUNTS 23 22 0 0 0
M  V30 BEGIN ATOM
M  V30 1 O 0.0 0.0 0.0 0
M  V30 2 C -0.105 -1.3137 0.0 0
M  V30 3 O 1.0299 -1.9233 0.0 0
M  V30 4 C -1.4503 -1.9233 0.0 0
M  V30 5 C 2.165 -1.072 0.0 0
M  V30 6 C -2.7956 -1.072 0.0 0
M  V30 7 C -4.1409 -1.65 0.0 0
M  V30 8 C -5.4862 -0.7987 0.0 0
M  V30 9 C -6.8314 -1.3768 0.0 0
M  V30 10 C -8.1767 -0.5254 0.0 0
M  V30 11 C -9.522 -1.1035 0.0 0
M  V30 12 C -10.8673 -0.2522 0.0 0
M  V30 13 C -12.2126 -0.8407 0.0 0
M  V30 14 C -13.5578 0.0105 0.0 0
M  V30 15 C -14.9031 -0.557 0.0 0
M  V30 16 C -16.2484 0.2942 0.0 0
M  V30 17 C -17.5937 -0.2837 0.0 0
M  V30 18 C -18.939 0.5675 0.0 0
M  V30 19 C -20.2842 0.0 0.0 0
M  V30 20 C -21.6295 0.8513 0.0 0
M  V30 21 C -22.9748 0.2732 0.0 0
M  V30 22 C -24.3201 1.1245 0.0 0
M  V30 23 C -25.6654 0.557 0.0 0
M  V30 END ATOM
M  V30 BEGIN BOND
M  V30 1 2 1 2
M  V30 2 1 2 3
M  V30 3 1 2 4
M  V30 4 1 3 5
M  V30 5 1 4 6
M  V30 6 1 6 7
M  V30 7 1 7 8
M  V30 8 1 8 9
M  V30 9 1 9 10
M  V30 10 1 10 11
M  V30 11 1 11 12
M  V30 12 1 12 13
M  V30 13 1 13 14
M  V30 14 1 14 15
M  V30 15 1 15 16
M  V30 16 1 16 17
M  V30 17 1 17 18
M  V30 18 1 18 19
M  V30 19 1 19 20
M  V30 20 1 20 21
M  V30 21 1 21 22
M  V30 22 1 22 23
M  V30 END BOND
M  V30 END CTAB
M  END
>  <Molecule Name>
methyl eicosanoate

>  <Molecule Name 2>
methyl eicosanoate

>  <Database>
Essential Oil Database

>  <InChI>
InChI=1S/C21H42O2/c1-3-4-5-6-7-8-9-10-11-12-13-14-15-16-17-18-19-20-21(22)23-2/h3-20H2,1-2H3

>  <InChI-Key>
QGBRLVONZXHAKJ-UHFFFAOYSA-N

>  <Smiles>
CCCCCCCCCCCCCCCCCCCC(OC)=O

>  <Molecular Formula>
C21H42O2

$$$$
3,3,5-trimethylcyclohexane
Actelion Java MolfileCreator 2.0

  0  0  0  0  0  0              0 V3000
M  V30 BEGIN CTAB
M  V30 COUNTS 9 9 0 0 0
M  V30 BEGIN ATOM
M  V30 1 C 0.0 0.0 0.0 0
M  V30 2 C 1.233 -0.6165 0.0 0
M  V30 3 C -1.4657 -0.6165 0.0 0
M  V30 4 C -0.8491 1.489 0.0 0
M  V30 5 C 0.5816 1.489 0.0 0
M  V30 6 C 1.1167 -2.0473 0.0 0 CFG=2
M  V30 7 C -1.582 -2.0473 0.0 0
M  V30 8 C -0.3489 -2.6639 0.0 0
M  V30 9 C 2.3498 -2.6639 0.0 0
M  V30 END ATOM
M  V30 BEGIN BOND
M  V30 1 1 1 2
M  V30 2 1 1 3
M  V30 3 1 1 4
M  V30 4 1 1 5
M  V30 5 1 2 6
M  V30 6 1 3 7
M  V30 7 1 6 8
M  V30 8 1 6 9 CFG=1
M  V30 9 1 7 8
M  V30 END BOND
M  V30 BEGIN COLLECTION
M  V30 MDLV30/STERAC1 ATOMS=(1 6)
M  V30 END COLLECTION
M  V30 END CTAB
M  END
>  <Molecule Name>
3,3,5-trimethylcyclohexane

>  <Molecule Name 2>
3,3,5-trimethylcyclohexane

>  <Database>
Essential Oil Database

>  <InChI>
InChI=1S/C9H18/c1-8-5-4-6-9(2,3)7-8/h8H,4-7H2,1-3H3/t8-/m0/s1

>  <InChI-Key>
PYOLJOJPIPCRDP-QMMMGPOBSA-N

>  <Smiles>
CC1CC(C)(C)CCC1

>  <Molecular Formula>
C9H18

$$$$
benzocyclobutane
Actelion Java MolfileCreator 2.0

  0  0  0  0  0  0              0 V3000
M  V30 BEGIN CTAB
M  V30 COUNTS 11 12 0 0 0
M  V30 BEGIN ATOM
M  V30 1 C 0.0 0.0 0.0 0
M  V30 2 C -0.1328 1.7 0.0 0
M  V30 3 C 1.2086 -0.7039 0.0 0
M  V30 4 C -1.4742 -0.7039 0.0 0
M  V30 5 C 1.0757 2.5765 0.0 0
M  V30 6 C 2.4172 0.1593 0.0 0
M  V30 7 C -1.607 -2.1383 0.0 0
M  V30 8 C 2.2844 1.8593 0.0 0
M  V30 9 C -0.664 -3.0812 0.0 0
M  V30 10 C -2.8156 -3.0812 0.0 0
M  V30 11 C -1.8726 -4.0242 0.0 0
M  V30 END ATOM
M  V30 BEGIN BOND
M  V30 1 2 1 2
M  V30 2 1 1 3
M  V30 3 1 1 4
M  V30 4 1 2 5
M  V30 5 2 3 6
M  V30 6 1 4 7
M  V30 7 2 5 8
M  V30 8 1 7 9
M  V30 9 1 7 10
M  V30 10 1 9 11
M  V30 11 1 6 8
M  V30 12 1 10 11
M  V30 END BOND
M  V30 END CTAB
M  END
>  <Molecule Name>
benzocyclobutane

>  <Molecule Name 2>
benzocyclobutane

>  <Database>
Essential Oil Database

>  <InChI>
InChI=1S/C11H14/c1-2-5-10(6-3-1)9-11-7-4-8-11/h1-3,5-6,11H,4,7-9H2

>  <InChI-Key>
VCFOCJUHWQFXBR-UHFFFAOYSA-N

>  <Smiles>
C(C1CCC1)c1ccccc1

>  <Molecular Formula>
C11H14

$$$$
4,8-dimethylnona-1,3,7-triene
Actelion Java MolfileCreator 2.0

  0  0  0  0  0  0              0 V3000
M  V30 BEGIN CTAB
M  V30 COUNTS 11 10 0 0 0
M  V30 BEGIN ATOM
M  V30 1 C 0.0 0.0 0.0 0
M  V30 2 C 1.3607 0.1259 0.0 0
M  V30 3 C -0.8189 -1.1465 0.0 0
M  V30 4 C -0.8189 1.3985 0.0 0
M  V30 5 C 2.0411 1.5245 0.0 0
M  V30 6 C -2.4317 -1.0205 0.0 0
M  V30 7 C 3.4019 1.6505 0.0 0
M  V30 8 C -3.2633 -2.1671 0.0 0
M  V30 9 C -4.8761 -2.0411 0.0 0
M  V30 10 C -5.6951 -3.1877 0.0 0
M  V30 11 C -5.6951 -0.6425 0.0 0
M  V30 END ATOM
M  V30 BEGIN BOND
M  V30 1 2 1 2
M  V30 2 1 1 3
M  V30 3 1 1 4
M  V30 4 1 2 5
M  V30 5 1 3 6
M  V30 6 2 5 7
M  V30 7 1 6 8
M  V30 8 2 8 9
M  V30 9 1 9 10
M  V30 10 1 9 11
M  V30 END BOND
M  V30 END CTAB
M  END
>  <Molecule Name>
4,8-dimethylnona-1,3,7-triene

>  <Molecule Name 2>
4,8-dimethylnona-1,3,7-triene

>  <Database>
Essential Oil Database

>  <InChI>
InChI=1S/C11H18/c1-5-7-11(4)9-6-8-10(2)3/h5,7-8H,1,6,9H2,2-4H3/b11-7+

>  <InChI-Key>
LUKZREJJLWEWQM-YRNVUSSQSA-N

>  <Smiles>
CC(C)=CCC/C(\C)=C/C=C

>  <Molecular Formula>
C11H18

$$$$
6-paradol
Actelion Java MolfileCreator 2.0

  0  0  0  0  0  0              0 V3000
M  V30 BEGIN CTAB
M  V30 COUNTS 20 20 0 0 0
M  V30 BEGIN ATOM
M  V30 1 O 0.0 0.0 0.0 0
M  V30 2 C -0.1129 -1.4123 0.0 0
M  V30 3 C 1.1072 -2.0111 0.0 0
M  V30 4 C -1.5591 -2.0111 0.0 0
M  V30 5 C 2.3274 -1.0959 0.0 0
M  V30 6 C -3.0053 -1.0959 0.0 0
M  V30 7 C 3.5477 -1.6947 0.0 0
M  V30 8 C -4.4515 -1.6947 0.0 0
M  V30 9 C 3.4347 -3.107 0.0 0
M  V30 10 C 4.7679 -0.7795 0.0 0
M  V30 11 C -5.8977 -0.7795 0.0 0
M  V30 12 C 4.6549 -3.7058 0.0 0
M  V30 13 C 5.9881 -1.3784 0.0 0
M  V30 14 C -7.3439 -1.3784 0.0 0
M  V30 15 O 4.5419 -5.1181 0.0 0
M  V30 16 C 5.8751 -2.7907 0.0 0
M  V30 17 C -8.7901 -0.4632 0.0 0
M  V30 18 C 3.0957 -5.717 0.0 0
M  V30 19 O 7.0954 -3.3895 0.0 0
M  V30 20 C -10.2363 -1.062 0.0 0
M  V30 END ATOM
M  V30 BEGIN BOND
M  V30 1 2 1 2
M  V30 2 1 2 3
M  V30 3 1 2 4
M  V30 4 1 3 5
M  V30 5 1 4 6
M  V30 6 1 5 7
M  V30 7 1 6 8
M  V30 8 2 7 9
M  V30 9 1 7 10
M  V30 10 1 8 11
M  V30 11 1 9 12
M  V30 12 2 10 13
M  V30 13 1 11 14
M  V30 14 1 12 15
M  V30 15 2 12 16
M  V30 16 1 14 17
M  V30 17 1 15 18
M  V30 18 1 16 19
M  V30 19 1 17 20
M  V30 20 1 13 16
M  V30 END BOND
M  V30 END CTAB
M  END
>  <Molecule Name>
6-paradol

>  <Molecule Name 2>
6-paradol

>  <Database>
Essential Oil Database

>  <InChI>
InChI=1S/C17H26O3/c1-3-4-5-6-7-8-15(18)11-9-14-10-12-16(19)17(13-14)20-2/h10,12-13,19H,3-9,11H2,1-2H3

>  <InChI-Key>
CZNLTCTYLMYLHL-UHFFFAOYSA-N

>  <Smiles>
CCCCCCCC(CCc(cc1)cc(OC)c1O)=O

>  <Molecular Formula>
C17H26O3

$$$$
zingerone
Actelion Java MolfileCreator 2.0

  0  0  0  0  0  0              0 V3000
M  V30 BEGIN CTAB
M  V30 COUNTS 14 14 0 0 0
M  V30 BEGIN ATOM
M  V30 1 O 0.0 0.0 0.0 0
M  V30 2 C -0.1188 1.5219 0.0 0
M  V30 3 C -1.4386 2.2947 0.0 0
M  V30 4 C 0.963 2.2947 0.0 0
M  V30 5 C -2.7584 1.6645 0.0 0
M  V30 6 C -4.0782 2.4374 0.0 0
M  V30 7 C -4.1971 3.9593 0.0 0
M  V30 8 C -5.398 1.8072 0.0 0
M  V30 9 C -5.5169 4.7322 0.0 0
M  V30 10 C -6.7178 2.5801 0.0 0
M  V30 11 O -5.6358 6.2541 0.0 0
M  V30 12 C -6.8367 4.102 0.0 0
M  V30 13 C -6.9556 7.0269 0.0 0
M  V30 14 O -8.1565 4.8748 0.0 0
M  V30 END ATOM
M  V30 BEGIN BOND
M  V30 1 2 1 2
M  V30 2 1 2 3
M  V30 3 1 2 4
M  V30 4 1 3 5
M  V30 5 1 5 6
M  V30 6 2 6 7
M  V30 7 1 6 8
M  V30 8 1 7 9
M  V30 9 2 8 10
M  V30 10 1 9 11
M  V30 11 2 9 12
M  V30 12 1 11 13
M  V30 13 1 12 14
M  V30 14 1 10 12
M  V30 END BOND
M  V30 END CTAB
M  END
>  <Molecule Name>
zingerone

>  <Molecule Name 2>
zingerone

>  <Database>
Essential Oil Database

>  <InChI>
InChI=1S/C11H14O3/c1-8(12)3-4-9-5-6-10(13)11(7-9)14-2/h5-7,13H,3-4H2,1-2H3

>  <InChI-Key>
OJYLAHXKWMRDGS-UHFFFAOYSA-N

>  <Smiles>
CC(CCc(cc1)cc(OC)c1O)=O

>  <Molecular Formula>
C11H14O3

$$$$
neryl acetone
Actelion Java MolfileCreator 2.0

  0  0  0  0  0  0              0 V3000
M  V30 BEGIN CTAB
M  V30 COUNTS 14 13 0 0 0
M  V30 BEGIN ATOM
M  V30 1 O 0.0 0.0 0.0 0
M  V30 2 C 0.6481 1.3574 0.0 0
M  V30 3 C -0.1345 2.7148 0.0 0
M  V30 4 C 1.9689 1.4797 0.0 0
M  V30 5 C -1.6998 2.8371 0.0 0
M  V30 6 C -2.4947 4.1946 0.0 0
M  V30 7 C -4.0601 4.3169 0.0 0
M  V30 8 C -4.855 3.204 0.0 0
M  V30 9 C -4.855 5.6743 0.0 0
M  V30 10 C -6.4203 3.3263 0.0 0
M  V30 11 C -7.2152 2.2134 0.0 0
M  V30 12 C -8.7805 2.3357 0.0 0
M  V30 13 C -9.5754 1.2229 0.0 0
M  V30 14 C -9.5754 3.6932 0.0 0
M  V30 END ATOM
M  V30 BEGIN BOND
M  V30 1 2 1 2
M  V30 2 1 2 3
M  V30 3 1 2 4
M  V30 4 1 3 5
M  V30 5 1 5 6
M  V30 6 2 6 7
M  V30 7 1 7 8
M  V30 8 1 7 9
M  V30 9 1 8 10
M  V30 10 1 10 11
M  V30 11 2 11 12
M  V30 12 1 12 13
M  V30 13 1 12 14
M  V30 END BOND
M  V30 END CTAB
M  END
>  <Molecule Name>
neryl acetone

>  <Molecule Name 2>
neryl acetone

>  <Database>
Essential Oil Database

>  <InChI>
InChI=1S/C13H22O/c1-11(2)7-5-8-12(3)9-6-10-13(4)14/h7,9H,5-6,8,10H2,1-4H3/b12-9-

>  <InChI-Key>
HNZUNIKWNYHEJJ-XFXZXTDPSA-N

>  <Smiles>
CC(C)=CCC/C(\C)=C\CCC(C)=O

>  <Molecular Formula>
C13H22O

$$$$
(e)-1-(3',4'-dimethoxy phenyl)but-1-ene
Actelion Java MolfileCreator 2.0

  0  0  0  0  0  0              0 V3000
M  V30 BEGIN CTAB
M  V30 COUNTS 14 14 0 0 0
M  V30 BEGIN ATOM
M  V30 1 O 0.0 0.0 0.0 0
M  V30 2 C -1.3777 0.7943 0.0 0
M  V30 3 C -0.1241 -1.3404 0.0 0
M  V30 4 C -2.7554 0.1365 0.0 0
M  V30 5 C -1.5018 2.383 0.0 0
M  V30 6 O -2.8795 -1.2039 0.0 0
M  V30 7 C -4.1331 0.9432 0.0 0
M  V30 8 C -2.8795 3.1898 0.0 0
M  V30 9 C -1.75 -1.8741 0.0 0
M  V30 10 C -4.2572 2.5319 0.0 0
M  V30 11 C -3.0036 4.7785 0.0 0
M  V30 12 C -1.8741 5.5977 0.0 0
M  V30 13 C -1.9982 7.1864 0.0 0
M  V30 14 C -0.8688 7.9931 0.0 0
M  V30 END ATOM
M  V30 BEGIN BOND
M  V30 1 1 1 2
M  V30 2 1 1 3
M  V30 3 2 2 4
M  V30 4 1 2 5
M  V30 5 1 4 6
M  V30 6 1 4 7
M  V30 7 2 5 8
M  V30 8 1 6 9
M  V30 9 2 7 10
M  V30 10 1 8 11
M  V30 11 2 11 12
M  V30 12 1 12 13
M  V30 13 1 13 14
M  V30 14 1 8 10
M  V30 END BOND
M  V30 END CTAB
M  END
>  <Molecule Name>
(e)-1-(3',4'-dimethoxy phenyl)but-1-ene

>  <Molecule Name 2>
(e)-1-(3',4'-dimethoxy phenyl)but-1-ene

>  <Database>
Essential Oil Database

>  <InChI>
InChI=1S/C12H16O2/c1-4-5-6-10-7-8-11(13-2)12(9-10)14-3/h5-9H,4H2,1-3H3/b6-5+

>  <InChI-Key>
BONZIDALUXBFRW-AATRIKPKSA-N

>  <Smiles>
CC/C=C/c(cc1)cc(OC)c1OC

>  <Molecular Formula>
C12H16O2

$$$$
(e)-1-(3',4'-dimethoxyphenyl)butadiene
Actelion Java MolfileCreator 2.0

  0  0  0  0  0  0              0 V3000
M  V30 BEGIN CTAB
M  V30 COUNTS 14 14 0 0 0
M  V30 BEGIN ATOM
M  V30 1 O 0.0 0.0 0.0 0
M  V30 2 C -1.3777 0.7943 0.0 0
M  V30 3 C -0.1241 -1.3404 0.0 0
M  V30 4 C -2.7554 0.1365 0.0 0
M  V30 5 C -1.5018 2.383 0.0 0
M  V30 6 O -2.8795 -1.2039 0.0 0
M  V30 7 C -4.1331 0.9432 0.0 0
M  V30 8 C -2.8795 3.1898 0.0 0
M  V30 9 C -1.75 -1.8741 0.0 0
M  V30 10 C -4.2572 2.5319 0.0 0
M  V30 11 C -3.0036 4.7785 0.0 0
M  V30 12 C -1.8741 5.5977 0.0 0
M  V30 13 C -1.9982 7.1864 0.0 0
M  V30 14 C -0.8688 7.9931 0.0 0
M  V30 END ATOM
M  V30 BEGIN BOND
M  V30 1 1 1 2
M  V30 2 1 1 3
M  V30 3 2 2 4
M  V30 4 1 2 5
M  V30 5 1 4 6
M  V30 6 1 4 7
M  V30 7 2 5 8
M  V30 8 1 6 9
M  V30 9 2 7 10
M  V30 10 1 8 11
M  V30 11 2 11 12
M  V30 12 1 12 13
M  V30 13 2 13 14
M  V30 14 1 8 10
M  V30 END BOND
M  V30 END CTAB
M  END
>  <Molecule Name>
(e)-1-(3',4'-dimethoxyphenyl)butadiene

>  <Molecule Name 2>
(e)-1-(3',4'-dimethoxyphenyl)butadiene

>  <Database>
Essential Oil Database

>  <InChI>
InChI=1S/C12H14O2/c1-4-5-6-10-7-8-11(13-2)12(9-10)14-3/h4-9H,1H2,2-3H3/b6-5+

>  <InChI-Key>
JFHQUUYHTBVHHK-AATRIKPKSA-N

>  <Smiles>
COc(ccc(/C=C/C=C)c1)c1OC

>  <Molecular Formula>
C12H14O2

$$$$
(z)-1-(2',4',5'-trimethoxy phenyl)-butadiene
Actelion Java MolfileCreator 2.0

  0  0  0  0  0  0              0 V3000
M  V30 BEGIN CTAB
M  V30 COUNTS 16 16 0 0 0
M  V30 BEGIN ATOM
M  V30 1 O 0.0 0.0 0.0 0
M  V30 2 C -0.1229 1.5732 0.0 0
M  V30 3 C 1.1184 -0.6637 0.0 0
M  V30 4 C -1.4872 2.3844 0.0 0
M  V30 5 C 0.9955 2.3844 0.0 0
M  V30 6 O -2.8515 1.733 0.0 0
M  V30 7 C -1.6101 3.9577 0.0 0
M  V30 8 C 0.8726 3.9577 0.0 0
M  V30 9 C -4.2158 2.5319 0.0 0
M  V30 10 C -0.4916 4.7689 0.0 0
M  V30 11 O 1.9911 4.7689 0.0 0
M  V30 12 C -0.6145 6.3422 0.0 0
M  V30 13 C 3.1096 4.1175 0.0 0
M  V30 14 C -1.9788 7.1534 0.0 0
M  V30 15 C -3.3432 6.502 0.0 0
M  V30 16 C -4.7075 7.3009 0.0 0
M  V30 END ATOM
M  V30 BEGIN BOND
M  V30 1 1 1 2
M  V30 2 1 1 3
M  V30 3 2 2 4
M  V30 4 1 2 5
M  V30 5 1 4 6
M  V30 6 1 4 7
M  V30 7 2 5 8
M  V30 8 1 6 9
M  V30 9 2 7 10
M  V30 10 1 8 11
M  V30 11 1 10 12
M  V30 12 1 11 13
M  V30 13 2 12 14
M  V30 14 1 14 15
M  V30 15 2 15 16
M  V30 16 1 8 10
M  V30 END BOND
M  V30 END CTAB
M  END
>  <Molecule Name>
(z)-1-(2',4',5'-trimethoxy phenyl)-butadiene

>  <Molecule Name 2>
(z)-1-(2',4',5'-trimethoxy phenyl)-butadiene

>  <Database>
Essential Oil Database

>  <InChI>
InChI=1S/C13H16O3/c1-5-6-7-10-8-12(15-3)13(16-4)9-11(10)14-2/h5-9H,1H2,2-4H3/b7-6-

>  <InChI-Key>
WACVTIABRPEUPH-SREVYHEPSA-N

>  <Smiles>
COc(c(/C=C\C=C)c1)cc(OC)c1OC

>  <Molecular Formula>
C13H16O3

$$$$
(z)-1-(3',4'-dimethoxyphenyl)-butadiene
Actelion Java MolfileCreator 2.0

  0  0  0  0  0  0              0 V3000
M  V30 BEGIN CTAB
M  V30 COUNTS 14 14 0 0 0
M  V30 BEGIN ATOM
M  V30 1 O 0.0 0.0 0.0 0
M  V30 2 C -1.3555 0.7815 0.0 0
M  V30 3 C -0.1221 -1.3189 0.0 0
M  V30 4 C -2.7111 0.1343 0.0 0
M  V30 5 C -1.4776 2.3447 0.0 0
M  V30 6 O -2.8332 -1.1845 0.0 0
M  V30 7 C -4.0667 0.9281 0.0 0
M  V30 8 C -2.8332 3.1385 0.0 0
M  V30 9 C -1.7219 -1.844 0.0 0
M  V30 10 C -4.1888 2.4913 0.0 0
M  V30 11 C -2.9553 4.7017 0.0 0
M  V30 12 C -4.3109 5.4955 0.0 0
M  V30 13 C -5.6665 4.8482 0.0 0
M  V30 14 C -7.022 5.642 0.0 0
M  V30 END ATOM
M  V30 BEGIN BOND
M  V30 1 1 1 2
M  V30 2 1 1 3
M  V30 3 2 2 4
M  V30 4 1 2 5
M  V30 5 1 4 6
M  V30 6 1 4 7
M  V30 7 2 5 8
M  V30 8 1 6 9
M  V30 9 2 7 10
M  V30 10 1 8 11
M  V30 11 2 11 12
M  V30 12 1 12 13
M  V30 13 2 13 14
M  V30 14 1 8 10
M  V30 END BOND
M  V30 END CTAB
M  END
>  <Molecule Name>
(z)-1-(3',4'-dimethoxyphenyl)-butadiene

>  <Molecule Name 2>
(z)-1-(3',4'-dimethoxyphenyl)-butadiene

>  <Database>
Essential Oil Database

>  <InChI>
InChI=1S/C12H14O2/c1-4-5-6-10-7-8-11(13-2)12(9-10)14-3/h4-9H,1H2,2-3H3/b6-5-

>  <InChI-Key>
JFHQUUYHTBVHHK-WAYWQWQTSA-N

>  <Smiles>
COc(ccc(/C=C\C=C)c1)c1OC

>  <Molecular Formula>
C12H14O2

$$$$
curcumol
Actelion Java MolfileCreator 2.0

  0  0  0  0  0  0              0 V3000
M  V30 BEGIN CTAB
M  V30 COUNTS 17 19 0 0 0
M  V30 BEGIN ATOM
M  V30 1 O 0.0 0.0 0.0 0
M  V30 2 C -1.283 0.6881 0.0 0 CFG=2
M  V30 3 C 0.9914 -0.5831 0.0 0 CFG=1
M  V30 4 O -2.7759 1.318 0.0 0
M  V30 5 C -1.7262 -0.7114 0.0 0 CFG=2
M  V30 6 C -0.6415 2.1578 0.0 0
M  V30 7 C 1.7262 0.8864 0.0 0 CFG=1
M  V30 8 C 1.9828 -1.5396 0.0 0 CFG=1
M  V30 9 C -0.3849 -1.4813 0.0 0
M  V30 10 C -3.2075 -1.1547 0.0 0
M  V30 11 C 0.7814 2.321 0.0 0
M  V30 12 C 3.0792 0.6881 0.0 0
M  V30 13 C 3.2308 -0.8514 0.0 0
M  V30 14 C 1.6212 -2.8809 0.0 0
M  V30 15 C -3.4874 -2.5077 0.0 0
M  V30 16 C -4.5255 -0.1399 0.0 0
M  V30 17 C 1.3763 3.7207 0.0 0
M  V30 END ATOM
M  V30 BEGIN BOND
M  V30 1 1 1 2
M  V30 2 1 3 1 CFG=1
M  V30 3 1 2 4 CFG=1
M  V30 4 1 2 5
M  V30 5 1 2 6
M  V30 6 1 3 7
M  V30 7 1 3 8
M  V30 8 1 3 9
M  V30 9 1 5 10 CFG=3
M  V30 10 1 6 11
M  V30 11 1 7 12
M  V30 12 1 8 13
M  V30 13 1 8 14 CFG=1
M  V30 14 1 10 15
M  V30 15 1 10 16
M  V30 16 2 11 17
M  V30 17 1 5 9
M  V30 18 1 7 11 CFG=1
M  V30 19 1 12 13
M  V30 END BOND
M  V30 BEGIN COLLECTION
M  V30 MDLV30/STERAC1 ATOMS=(5 2 3 5 7 8)
M  V30 END COLLECTION
M  V30 END CTAB
M  END
>  <Molecule Name>
curcumol

>  <Molecule Name 2>
curcumol

>  <Database>
Essential Oil Database

>  <InChI>
InChI=1S/C15H24O2/c1-9(2)13-8-14-11(4)5-6-12(14)10(3)7-15(13,16)17-14/h9,11-13,16H,3,5-8H2,1-2,4H3/t11-,12-,13-,14-,15+/m1/s1

>  <InChI-Key>
QRMPRVXWPCLVNI-RYPNDVFKSA-N

>  <Smiles>
CC(C)[C@@H](C1)[C@@](C2)(O)O[C@]1([C@H](C)CC1)[C@H]1C2=C

>  <Molecular Formula>
C15H24O2

$$$$
furanodiene
Actelion Java MolfileCreator 2.0

  0  0  0  0  0  0              0 V3000
M  V30 BEGIN CTAB
M  V30 COUNTS 16 17 0 0 0
M  V30 BEGIN ATOM
M  V30 1 O 0.0 0.0 0.0 0
M  V30 2 C 1.0463 1.0463 0.0 0
M  V30 3 C -1.3826 0.9342 0.0 0
M  V30 4 C 0.3612 2.5908 0.0 0
M  V30 5 C 2.4289 0.9092 0.0 0
M  V30 6 C -1.0836 2.5285 0.0 0
M  V30 7 C 1.1833 3.8738 0.0 0
M  V30 8 C 2.8649 -0.3861 0.0 0
M  V30 9 C -2.1299 3.824 0.0 0
M  V30 10 C 2.5659 3.7368 0.0 0
M  V30 11 C 4.2475 -0.5231 0.0 0
M  V30 12 C 1.7936 -1.4199 0.0 0
M  V30 13 C 3.0019 2.4414 0.0 0
M  V30 14 C 5.0696 0.7598 0.0 0
M  V30 15 C 4.3845 2.3043 0.0 0
M  V30 16 C 2.7901 1.0463 0.0 0
M  V30 END ATOM
M  V30 BEGIN BOND
M  V30 1 1 1 2
M  V30 2 1 1 3
M  V30 3 2 2 4
M  V30 4 1 2 5
M  V30 5 2 3 6
M  V30 6 1 4 7
M  V30 7 1 5 8
M  V30 8 1 6 9
M  V30 9 1 7 10
M  V30 10 2 8 11
M  V30 11 1 8 12
M  V30 12 2 10 13
M  V30 13 1 11 14
M  V30 14 1 13 15
M  V30 15 1 13 16
M  V30 16 1 4 6
M  V30 17 1 14 15
M  V30 END BOND
M  V30 END CTAB
M  END
>  <Molecule Name>
furanodiene

>  <Molecule Name 2>
furanodiene

>  <Database>
Essential Oil Database

>  <InChI>
InChI=1S/C15H20O/c1-11-5-4-6-12(2)9-15-14(8-7-11)13(3)10-16-15/h6-7,10H,4-5,8-9H2,1-3H3/b11-7+,12-6-

>  <InChI-Key>
VMDXHYHOJPKFEK-RZWYOFBOSA-N

>  <Smiles>
Cc1c[o]c2c1C/C=C(\C)/CC/C=C(/C)\C2

>  <Molecular Formula>
C15H20O

$$$$
2-heptanol acetate
Actelion Java MolfileCreator 2.0

  0  0  0  0  0  0              0 V3000
M  V30 BEGIN CTAB
M  V30 COUNTS 12 11 0 0 0
M  V30 BEGIN ATOM
M  V30 1 O 0.0 0.0 0.0 0
M  V30 2 C -0.1337 -1.445 0.0 0
M  V30 3 O -1.6189 -2.1675 0.0 0 CHG=-1
M  V30 4 C 1.0837 -2.1675 0.0 0
M  V30 5 C 2.3013 -1.2844 0.0 0 CFG=1
M  V30 6 O 2.1675 0.4281 0.0 0
M  V30 7 C 3.5188 -2.0069 0.0 0
M  V30 8 C 4.7364 -1.1238 0.0 0
M  V30 9 C 5.9539 -1.8463 0.0 0
M  V30 10 C 7.1715 -0.9633 0.0 0
M  V30 11 C 8.389 -1.6858 0.0 0
M  V30 12 C 9.6066 -0.8027 0.0 0
M  V30 END ATOM
M  V30 BEGIN BOND
M  V30 1 2 1 2
M  V30 2 1 2 3
M  V30 3 1 2 4
M  V30 4 1 4 5
M  V30 5 1 5 6 CFG=1
M  V30 6 1 5 7
M  V30 7 1 7 8
M  V30 8 1 8 9
M  V30 9 1 9 10
M  V30 10 1 10 11
M  V30 11 1 11 12
M  V30 END BOND
M  V30 BEGIN COLLECTION
M  V30 MDLV30/STERAC1 ATOMS=(1 5)
M  V30 END COLLECTION
M  V30 END CTAB
M  END
>  <Molecule Name>
2-heptanol acetate

>  <Molecule Name 2>
2-heptanol acetate

>  <Database>
Essential Oil Database

>  <InChI>
InChI=1S/C9H18O3/c1-2-3-4-5-6-8(10)7-9(11)12/h8,10H,2-7H2,1H3,(H,11,12)/p-1/t8-/m0/s1

>  <InChI-Key>
XBUXARJOYUQNTC-QMMMGPOBSA-M

>  <Smiles>
CCCCCCC(CC([O-])=O)O

>  <Molecular Formula>
C9H17O3

$$$$
cis-2,3-pinane diol
Actelion Java MolfileCreator 2.0

  0  0  0  0  0  0              0 V3000
M  V30 BEGIN CTAB
M  V30 COUNTS 12 13 0 0 0
M  V30 BEGIN ATOM
M  V30 1 O 0.0 0.0 0.0 0
M  V30 2 C -1.58 -0.4309 0.0 0
M  V30 3 C -0.8879 -1.6192 0.0 0
M  V30 4 C -3.2515 -0.2872 0.0 0
M  V30 5 C -1.9979 1.2144 0.0 0
M  V30 6 O 0.5223 -1.5017 0.0 0
M  V30 7 C -1.7367 -2.8075 0.0 0
M  V30 8 C -4.1003 -1.4756 0.0 0
M  V30 9 C -3.5257 -1.5409 0.0 0
M  V30 10 C -3.4082 -2.6639 0.0 0
M  V30 11 C -5.5759 -0.6268 0.0 0
M  V30 12 C -5.5759 -2.1154 0.0 0
M  V30 END ATOM
M  V30 BEGIN BOND
M  V30 1 1 1 2
M  V30 2 1 2 3
M  V30 3 1 2 4
M  V30 4 1 2 5
M  V30 5 1 3 6
M  V30 6 1 3 7
M  V30 7 1 4 8
M  V30 8 1 4 9
M  V30 9 1 7 10
M  V30 10 1 8 11
M  V30 11 1 8 12
M  V30 12 1 8 10
M  V30 13 1 9 10
M  V30 END BOND
M  V30 END CTAB
M  END
>  <Molecule Name>
cis-2,3-pinane diol

>  <Molecule Name 2>
cis-2,3-pinane diol

>  <Database>
Essential Oil Database

>  <InChI>
InChI=1S/C10H18O2/c1-9(2)6-4-7(9)10(3,12)8(11)5-6/h6-8,11-12H,4-5H2,1-3H3

>  <InChI-Key>
MOILFCKRQFQVFS-UHFFFAOYSA-N

>  <Smiles>
CC(C)(C(C1)CC2O)C1C2(C)O

>  <Molecular Formula>
C10H18O2

$$$$
daucol
Actelion Java MolfileCreator 2.0

  0  0  0  0  0  0              0 V3000
M  V30 BEGIN CTAB
M  V30 COUNTS 17 19 0 0 0
M  V30 BEGIN ATOM
M  V30 1 O 0.0 0.0 0.0 0
M  V30 2 C -1.1283 -0.6571 0.0 0 CFG=2
M  V30 3 C 1.0167 0.7935 0.0 0 CFG=2
M  V30 4 C -1.9963 0.8431 0.0 0 CFG=1
M  V30 5 C -2.3559 -1.5251 0.0 0 CFG=1
M  V30 6 C 0.0371 -1.4507 0.0 0
M  V30 7 C 0.1859 2.2567 0.0 0 CFG=2
M  V30 8 C 1.3391 -0.5703 0.0 0
M  V30 9 C 2.2567 1.5127 0.0 0
M  V30 10 C -1.3763 2.3435 0.0 0
M  V30 11 C -3.5835 0.6819 0.0 0
M  V30 12 C -2.9759 2.1327 0.0 0
M  V30 13 C -2.2567 -2.8643 0.0 0
M  V30 14 C -3.8067 -0.7191 0.0 0
M  V30 15 O 0.8803 3.6331 0.0 0
M  V30 16 C -3.5215 -3.6331 0.0 0
M  V30 17 C -1.0167 -3.3231 0.0 0
M  V30 END ATOM
M  V30 BEGIN BOND
M  V30 1 1 2 1 CFG=1
M  V30 2 1 1 3
M  V30 3 1 2 4
M  V30 4 1 2 5
M  V30 5 1 2 6
M  V30 6 1 3 7
M  V30 7 1 3 8
M  V30 8 1 3 9 CFG=1
M  V30 9 1 4 10
M  V30 10 1 4 11
M  V30 11 1 4 12 CFG=1
M  V30 12 1 5 13 CFG=1
M  V30 13 1 5 14
M  V30 14 1 7 15 CFG=3
M  V30 15 1 13 16
M  V30 16 1 13 17
M  V30 17 1 6 8
M  V30 18 1 7 10
M  V30 19 1 11 14
M  V30 END BOND
M  V30 BEGIN COLLECTION
M  V30 MDLV30/STERAC1 ATOMS=(5 2 3 4 5 7)
M  V30 END COLLECTION
M  V30 END CTAB
M  END
>  <Molecule Name>
daucol

>  <Molecule Name 2>
daucol

>  <Database>
Essential Oil Database

>  <InChI>
InChI=1S/C15H26O2/c1-10(2)11-5-6-13(3)9-12(16)14(4)7-8-15(11,13)17-14/h10-12,16H,5-9H2,1-4H3/t11-,12+,13-,14+,15+/m1/s1

>  <InChI-Key>
VLIUMVVQGMLOJG-SEBNEYGDSA-N

>  <Smiles>
CC(C)[C@@H](CC[C@]1(C)C2)[C@]1(CC1)O[C@]1(C)[C@H]2O

>  <Molecular Formula>
C15H26O2

$$$$
dihydrogalangal acetate
Actelion Java MolfileCreator 2.0

  0  0  0  0  0  0              0 V3000
M  V30 BEGIN CTAB
M  V30 COUNTS 17 17 0 0 0
M  V30 BEGIN ATOM
M  V30 1 O 0.0 0.0 0.0 0
M  V30 2 C -1.4857 -0.6267 0.0 0
M  V30 3 O -1.6017 -2.0776 0.0 0
M  V30 4 C -2.9714 0.3017 0.0 0
M  V30 5 C -0.3482 -2.6928 0.0 0
M  V30 6 C -0.4642 -4.1437 0.0 0
M  V30 7 C 0.9053 -1.7526 0.0 0
M  V30 8 C 0.7892 -4.7589 0.0 0
M  V30 9 C 2.1589 -2.3678 0.0 0
M  V30 10 C 2.0428 -3.8187 0.0 0
M  V30 11 C 3.2964 -4.4339 0.0 0 CFG=1
M  V30 12 O 4.55 -3.4937 0.0 0
M  V30 13 C 3.1803 -5.8848 0.0 0
M  V30 14 C 5.8035 -4.1089 0.0 0
M  V30 15 C 1.6946 -6.5 0.0 0
M  V30 16 O 5.6875 -5.5598 0.0 0
M  V30 17 C 7.0571 -3.1687 0.0 0
M  V30 END ATOM
M  V30 BEGIN BOND
M  V30 1 2 1 2
M  V30 2 1 2 3
M  V30 3 1 2 4
M  V30 4 1 3 5
M  V30 5 2 5 6
M  V30 6 1 5 7
M  V30 7 1 6 8
M  V30 8 2 7 9
M  V30 9 2 8 10
M  V30 10 1 10 11
M  V30 11 1 11 12 CFG=1
M  V30 12 1 11 13
M  V30 13 1 12 14
M  V30 14 1 13 15
M  V30 15 2 14 16
M  V30 16 1 14 17
M  V30 17 1 9 10
M  V30 END BOND
M  V30 BEGIN COLLECTION
M  V30 MDLV30/STERAC1 ATOMS=(1 11)
M  V30 END COLLECTION
M  V30 END CTAB
M  END
>  <Molecule Name>
dihydrogalangal acetate

>  <Molecule Name 2>
dihydrogalangal acetate

>  <Database>
Essential Oil Database

>  <InChI>
InChI=1S/C13H16O4/c1-4-13(17-10(3)15)11-5-7-12(8-6-11)16-9(2)14/h5-8,13H,4H2,1-3H3/t13-/m0/s1

>  <InChI-Key>
UAWHZODFGAHJCC-ZDUSSCGKSA-N

>  <Smiles>
CCC(c(cc1)ccc1OC(C)=O)OC(C)=O

>  <Molecular Formula>
C13H16O4

$$$$
(2e,6z)-farnesal
Actelion Java MolfileCreator 2.0

  0  0  0  0  0  0              0 V3000
M  V30 BEGIN CTAB
M  V30 COUNTS 16 15 0 0 0
M  V30 BEGIN ATOM
M  V30 1 O 0.0 0.0 0.0 0
M  V30 2 C 0.6552 -1.125 0.0 0
M  V30 3 C -0.1359 -2.2501 0.0 0
M  V30 4 C -1.7185 -2.1265 0.0 0
M  V30 5 C -2.5221 -3.2516 0.0 0
M  V30 6 C -2.5221 -0.7541 0.0 0
M  V30 7 C -4.1047 -3.1279 0.0 0
M  V30 8 C -4.8959 -1.7556 0.0 0
M  V30 9 C -6.4785 -1.6319 0.0 0
M  V30 10 C -7.2821 -2.757 0.0 0
M  V30 11 C -7.2821 -0.2596 0.0 0
M  V30 12 C -8.8647 -2.6334 0.0 0
M  V30 13 C -9.6683 -3.7585 0.0 0
M  V30 14 C -11.2508 -3.6349 0.0 0
M  V30 15 C -12.0545 -4.7599 0.0 0
M  V30 16 C -12.0545 -2.2625 0.0 0
M  V30 END ATOM
M  V30 BEGIN BOND
M  V30 1 2 1 2
M  V30 2 1 2 3
M  V30 3 2 3 4
M  V30 4 1 4 5
M  V30 5 1 4 6
M  V30 6 1 5 7
M  V30 7 1 7 8
M  V30 8 2 8 9
M  V30 9 1 9 10
M  V30 10 1 9 11
M  V30 11 1 10 12
M  V30 12 1 12 13
M  V30 13 2 13 14
M  V30 14 1 14 15
M  V30 15 1 14 16
M  V30 END BOND
M  V30 END CTAB
M  END
>  <Molecule Name>
(2e,6z)-farnesal

>  <Molecule Name 2>
(2e,6z)-farnesal

>  <Database>
Essential Oil Database

>  <InChI>
InChI=1S/C15H24O/c1-13(2)7-5-8-14(3)9-6-10-15(4)11-12-16/h7,9,11-12H,5-6,8,10H2,1-4H3/b14-9-,15-11+

>  <InChI-Key>
YHRUHBBTQZKMEX-GNESMGCMSA-N

>  <Smiles>
CC(C)=CCC/C(\C)=C\CC/C(\C)=C/C=O

>  <Molecular Formula>
C15H24O

$$$$
2-methyl isoborneol
Actelion Java MolfileCreator 2.0

  0  0  0  0  0  0              0 V3000
M  V30 BEGIN CTAB
M  V30 COUNTS 12 13 0 0 0
M  V30 BEGIN ATOM
M  V30 1 O 0.0 0.0 0.0 0
M  V30 2 C -1.3336 0.7809 0.0 0 CFG=1
M  V30 3 C 1.0933 0.7809 0.0 0
M  V30 4 C -2.6673 0.1441 0.0 0 CFG=1
M  V30 5 C -1.4537 2.3188 0.0 0
M  V30 6 C -3.1719 1.682 0.0 0
M  V30 7 C -4.0009 0.9251 0.0 0
M  V30 8 C -2.7874 -1.1534 0.0 0
M  V30 9 C -2.7874 3.0998 0.0 0 CFG=1
M  V30 10 C -4.6497 2.2347 0.0 0
M  V30 11 C -4.6497 1.3696 0.0 0
M  V30 12 C -4.1211 2.463 0.0 0
M  V30 END ATOM
M  V30 BEGIN BOND
M  V30 1 1 2 1 CFG=1
M  V30 2 1 1 3
M  V30 3 1 2 4
M  V30 4 1 2 5
M  V30 5 1 4 6
M  V30 6 1 4 7
M  V30 7 1 4 8 CFG=1
M  V30 8 1 9 5 CFG=1
M  V30 9 1 6 10
M  V30 10 1 6 11
M  V30 11 1 7 12
M  V30 12 1 6 9
M  V30 13 1 9 12
M  V30 END BOND
M  V30 BEGIN COLLECTION
M  V30 MDLV30/STERAC1 ATOMS=(3 2 4 9)
M  V30 END COLLECTION
M  V30 END CTAB
M  END
>  <Molecule Name>
2-methyl isoborneol

>  <Molecule Name 2>
2-methyl isoborneol

>  <Database>
Essential Oil Database

>  <InChI>
InChI=1S/C11H20O/c1-10(2)8-5-6-11(10,3)9(7-8)12-4/h8-9H,5-7H2,1-4H3/t8-,9+,11-/m0/s1

>  <InChI-Key>
ZRHVOKYSOWTPIG-NGZCFLSTSA-N

>  <Smiles>
CC(C)([C@@H](CC1)C2)[C@]1(C)[C@@H]2OC

>  <Molecular Formula>
C11H20O

$$$$
(e)-isoamyl cinnamate
Actelion Java MolfileCreator 2.0

  0  0  0  0  0  0              0 V3000
M  V30 BEGIN CTAB
M  V30 COUNTS 16 16 0 0 0
M  V30 BEGIN ATOM
M  V30 1 O 0.0 0.0 0.0 0
M  V30 2 C -0.1245 1.5941 0.0 0
M  V30 3 O 1.0087 2.4161 0.0 0
M  V30 4 C -1.5069 2.4161 0.0 0
M  V30 5 C 2.1421 1.756 0.0 0
M  V30 6 C -2.8893 1.756 0.0 0
M  V30 7 C 3.2754 2.578 0.0 0
M  V30 8 C -4.2717 2.578 0.0 0
M  V30 9 C 4.4087 1.9179 0.0 0
M  V30 10 C -5.6541 1.9179 0.0 0
M  V30 11 C -4.3963 4.1721 0.0 0
M  V30 12 C 5.5421 2.7399 0.0 0
M  V30 13 C 4.2842 0.5728 0.0 0
M  V30 14 C -7.0366 2.7399 0.0 0
M  V30 15 C -5.7787 4.9941 0.0 0
M  V30 16 C -7.1611 4.334 0.0 0
M  V30 END ATOM
M  V30 BEGIN BOND
M  V30 1 2 1 2
M  V30 2 1 2 3
M  V30 3 1 2 4
M  V30 4 1 3 5
M  V30 5 2 4 6
M  V30 6 1 5 7
M  V30 7 1 6 8
M  V30 8 1 7 9
M  V30 9 2 8 10
M  V30 10 1 8 11
M  V30 11 1 9 12
M  V30 12 1 9 13
M  V30 13 1 10 14
M  V30 14 2 11 15
M  V30 15 2 14 16
M  V30 16 1 15 16
M  V30 END BOND
M  V30 END CTAB
M  END
>  <Molecule Name>
(e)-isoamyl cinnamate

>  <Molecule Name 2>
(e)-isoamyl cinnamate

>  <Database>
Essential Oil Database

>  <InChI>
InChI=1S/C14H18O2/c1-12(2)10-11-16-14(15)9-8-13-6-4-3-5-7-13/h3-9,12H,10-11H2,1-2H3/b9-8+

>  <InChI-Key>
JFHCDEYLWGVZMX-CMDGGOBGSA-N

>  <Smiles>
CC(C)CCOC(/C=C/c1ccccc1)=O

>  <Molecular Formula>
C14H18O2

$$$$
ethyl-trans-p-methoxy cinnamate
Actelion Java MolfileCreator 2.0

  0  0  0  0  0  0              0 V3000
M  V30 BEGIN CTAB
M  V30 COUNTS 15 15 0 0 0
M  V30 BEGIN ATOM
M  V30 1 O 0.0 0.0 0.0 0
M  V30 2 C -1.4523 -0.7065 0.0 0
M  V30 3 O -2.9046 0.1439 0.0 0
M  V30 4 C -1.5831 -2.1196 0.0 0
M  V30 5 C -3.0354 1.8186 0.0 0
M  V30 6 C -0.3925 -2.813 0.0 0
M  V30 7 C -4.4878 2.6822 0.0 0
M  V30 8 C -0.5233 -4.2261 0.0 0
M  V30 9 C 0.6672 -4.9195 0.0 0
M  V30 10 C -1.9756 -4.9195 0.0 0
M  V30 11 C 0.5364 -6.3326 0.0 0
M  V30 12 C -2.1065 -6.3326 0.0 0
M  V30 13 C -0.9158 -7.026 0.0 0
M  V30 14 O -1.0467 -8.4391 0.0 0
M  V30 15 C 0.1439 -9.1457 0.0 0
M  V30 END ATOM
M  V30 BEGIN BOND
M  V30 1 2 1 2
M  V30 2 1 2 3
M  V30 3 1 2 4
M  V30 4 1 3 5
M  V30 5 2 4 6
M  V30 6 1 5 7
M  V30 7 1 6 8
M  V30 8 2 8 9
M  V30 9 1 8 10
M  V30 10 1 9 11
M  V30 11 2 10 12
M  V30 12 2 11 13
M  V30 13 1 13 14
M  V30 14 1 14 15
M  V30 15 1 12 13
M  V30 END BOND
M  V30 END CTAB
M  END
>  <Molecule Name>
ethyl-trans-p-methoxy cinnamate

>  <Molecule Name 2>
ethyl-trans-p-methoxy cinnamate

>  <Database>
Essential Oil Database

>  <InChI>
InChI=1S/C12H14O3/c1-3-15-12(13)9-6-10-4-7-11(14-2)8-5-10/h4-9H,3H2,1-2H3/b9-6+

>  <InChI-Key>
DHNGCHLFKUPGPX-RMKNXTFCSA-N

>  <Smiles>
CCOC(/C=C/c(cc1)ccc1OC)=O

>  <Molecular Formula>
C12H14O3

$$$$
1,1-dichloropropane
Actelion Java MolfileCreator 2.0

  0  0  0  0  0  0              0 V3000
M  V30 BEGIN CTAB
M  V30 COUNTS 5 4 0 0 0
M  V30 BEGIN ATOM
M  V30 1 Cl 0.0 0.0 0.0 0
M  V30 2 C -0.7661 1.3084 0.0 0
M  V30 3 Cl -2.2749 1.4144 0.0 0
M  V30 4 C -0.1296 2.6168 0.0 0
M  V30 5 C -0.8958 3.9252 0.0 0
M  V30 END ATOM
M  V30 BEGIN BOND
M  V30 1 1 1 2
M  V30 2 1 2 3
M  V30 3 1 2 4
M  V30 4 1 4 5
M  V30 END BOND
M  V30 END CTAB
M  END
>  <Molecule Name>
1,1-dichloropropane

>  <Molecule Name 2>
1,1-dichloropropane

>  <Database>
Essential Oil Database

>  <InChI>
InChI=1S/C3H6Cl2/c1-2-3(4)5/h3H,2H2,1H3

>  <InChI-Key>
WIHMGGWNMISDNJ-UHFFFAOYSA-N

>  <Smiles>
CCC(Cl)Cl

>  <Molecular Formula>
C3H6Cl2

$$$$
1,3-dioxan-5-ol
Actelion Java MolfileCreator 2.0

  0  0  0  0  0  0              0 V3000
M  V30 BEGIN CTAB
M  V30 COUNTS 7 7 0 0 0
M  V30 BEGIN ATOM
M  V30 1 O 0.0 0.0 0.0 0
M  V30 2 C 1.1809 -0.6856 0.0 0
M  V30 3 C -0.1142 1.6253 0.0 0
M  V30 4 O 2.3618 0.1269 0.0 0
M  V30 5 C 1.0666 2.4507 0.0 0
M  V30 6 C 2.2475 1.7523 0.0 0
M  V30 7 O 0.9523 4.0761 0.0 0
M  V30 END ATOM
M  V30 BEGIN BOND
M  V30 1 1 1 2
M  V30 2 1 1 3
M  V30 3 1 2 4
M  V30 4 1 3 5
M  V30 5 1 4 6
M  V30 6 1 5 7
M  V30 7 1 5 6
M  V30 END BOND
M  V30 END CTAB
M  END
>  <Molecule Name>
1,3-dioxan-5-ol

>  <Molecule Name 2>
1,3-dioxan-5-ol

>  <Database>
Essential Oil Database

>  <InChI>
InChI=1S/C4H8O3/c5-4-1-6-3-7-2-4/h4-5H,1-3H2

>  <InChI-Key>
VCKSNYNNVSOWEE-UHFFFAOYSA-N

>  <Smiles>
OC1COCOC1

>  <Molecular Formula>
C4H8O3

$$$$
2,3-butanediol
Actelion Java MolfileCreator 2.0

  0  0  0  0  0  0              0 V3000
M  V30 BEGIN CTAB
M  V30 COUNTS 6 5 0 0 0
M  V30 BEGIN ATOM
M  V30 1 O 0.0 0.0 0.0 0
M  V30 2 C -1.5806 0.1111 0.0 0
M  V30 3 C -2.3956 -1.0372 0.0 0
M  V30 4 C -2.3956 1.4818 0.0 0
M  V30 5 O -3.9762 -0.9261 0.0 0
M  V30 6 C -1.7288 -2.1857 0.0 0
M  V30 END ATOM
M  V30 BEGIN BOND
M  V30 1 1 1 2
M  V30 2 1 2 3
M  V30 3 1 2 4
M  V30 4 1 3 5
M  V30 5 1 3 6
M  V30 END BOND
M  V30 END CTAB
M  END
>  <Molecule Name>
2,3-butanediol

>  <Molecule Name 2>
2,3-butanediol

>  <Database>
Essential Oil Database

>  <InChI>
InChI=1S/C4H10O2/c1-3(5)4(2)6/h3-6H,1-2H3

>  <InChI-Key>
OWBTYPJTUOEWEK-UHFFFAOYSA-N

>  <Smiles>
CC(C(C)O)O

>  <Molecular Formula>
C4H10O2

$$$$
2,4,5-trimethyl-1,3-dioxolene
Actelion Java MolfileCreator 2.0

  0  0  0  0  0  0              0 V3000
M  V30 BEGIN CTAB
M  V30 COUNTS 8 8 0 0 0
M  V30 BEGIN ATOM
M  V30 1 O 0.0 0.0 0.0 0
M  V30 2 C -0.5949 1.512 0.0 0
M  V30 3 C 1.3633 0.1115 0.0 0
M  V30 4 C 0.4709 2.454 0.0 0
M  V30 5 C -2.107 2.107 0.0 0
M  V30 6 O 1.7351 1.6236 0.0 0
M  V30 7 C 2.107 -0.9543 0.0 0
M  V30 8 C 0.3594 4.0405 0.0 0
M  V30 END ATOM
M  V30 BEGIN BOND
M  V30 1 1 1 2
M  V30 2 1 1 3
M  V30 3 2 2 4
M  V30 4 1 2 5
M  V30 5 1 3 6
M  V30 6 1 3 7
M  V30 7 1 4 8
M  V30 8 1 4 6
M  V30 END BOND
M  V30 END CTAB
M  END
>  <Molecule Name>
2,4,5-trimethyl-1,3-dioxolene

>  <Molecule Name 2>
2,4,5-trimethyl-1,3-dioxolene

>  <Database>
Essential Oil Database

>  <InChI>
InChI=1S/C6H10O2/c1-4-5(2)8-6(3)7-4/h6H,1-3H3

>  <InChI-Key>
DUKLLGPRSJZVEE-UHFFFAOYSA-N

>  <Smiles>
CC1OC(C)=C(C)O1

>  <Molecular Formula>
C6H10O2

$$$$
2(e),4(z)-decadienal
Actelion Java MolfileCreator 2.0

  0  0  0  0  0  0              0 V3000
M  V30 BEGIN CTAB
M  V30 COUNTS 11 10 0 0 0
M  V30 BEGIN ATOM
M  V30 1 O 0.0 0.0 0.0 0
M  V30 2 C 1.2905 -0.6393 0.0 0
M  V30 3 C 1.1839 -2.1311 0.0 0
M  V30 4 C 2.4744 -2.7823 0.0 0
M  V30 5 C 2.3679 -4.2741 0.0 0
M  V30 6 C 3.6584 -4.9134 0.0 0
M  V30 7 C 4.9489 -3.9662 0.0 0
M  V30 8 C 6.2395 -4.6056 0.0 0
M  V30 9 C 7.53 -3.6584 0.0 0
M  V30 10 C 8.8205 -4.2978 0.0 0
M  V30 11 C 10.111 -3.3506 0.0 0
M  V30 END ATOM
M  V30 BEGIN BOND
M  V30 1 2 1 2
M  V30 2 1 2 3
M  V30 3 2 3 4
M  V30 4 1 4 5
M  V30 5 2 5 6
M  V30 6 1 6 7
M  V30 7 1 7 8
M  V30 8 1 8 9
M  V30 9 1 9 10
M  V30 10 1 10 11
M  V30 END BOND
M  V30 END CTAB
M  END
>  <Molecule Name>
2(e),4(z)-decadienal

>  <Molecule Name 2>
2(e),4(z)-decadienal

>  <Database>
Essential Oil Database

>  <InChI>
InChI=1S/C10H16O/c1-2-3-4-5-6-7-8-9-10-11/h6-10H,2-5H2,1H3/b7-6-,9-8+

>  <InChI-Key>
JZQKTMZYLHNFPL-NMMTYZSQSA-N

>  <Smiles>
CCCCC/C=C\C=C\C=O

>  <Molecular Formula>
C10H16O

$$$$
2-ethoxybutane
Actelion Java MolfileCreator 2.0

  0  0  0  0  0  0              0 V3000
M  V30 BEGIN CTAB
M  V30 COUNTS 7 6 0 0 0
M  V30 BEGIN ATOM
M  V30 1 O 0.0 0.0 0.0 0
M  V30 2 C -1.4123 -0.6005 0.0 0 CFG=2
M  V30 3 C 1.2121 -0.6005 0.0 0
M  V30 4 C -2.8247 0.2891 0.0 0
M  V30 5 C -1.5124 -2.0017 0.0 0
M  V30 6 C 2.4243 0.2891 0.0 0
M  V30 7 C -4.2371 -0.3113 0.0 0
M  V30 END ATOM
M  V30 BEGIN BOND
M  V30 1 1 1 2
M  V30 2 1 1 3
M  V30 3 1 2 4
M  V30 4 1 2 5 CFG=1
M  V30 5 1 3 6
M  V30 6 1 4 7
M  V30 END BOND
M  V30 BEGIN COLLECTION
M  V30 MDLV30/STERAC1 ATOMS=(1 2)
M  V30 END COLLECTION
M  V30 END CTAB
M  END
>  <Molecule Name>
2-ethoxybutane

>  <Molecule Name 2>
2-ethoxybutane

>  <Database>
Essential Oil Database

>  <InChI>
InChI=1S/C6H14O/c1-4-6(3)7-5-2/h6H,4-5H2,1-3H3/t6-/m0/s1

>  <InChI-Key>
VSCUCHUDCLERMY-LURJTMIESA-N

>  <Smiles>
CCC(C)OCC

>  <Molecular Formula>
C6H14O

$$$$
tribromomethane
Actelion Java MolfileCreator 2.0

  0  0  0  0  0  0              0 V3000
M  V30 BEGIN CTAB
M  V30 COUNTS 4 3 0 0 0
M  V30 BEGIN ATOM
M  V30 1 Br 0.0 0.0 0.0 0
M  V30 2 C -0.8258 -1.1999 0.0 0
M  V30 3 Br -0.129 -2.3999 0.0 0
M  V30 4 Br -2.4774 -1.0838 0.0 0
M  V30 END ATOM
M  V30 BEGIN BOND
M  V30 1 1 1 2
M  V30 2 1 2 3
M  V30 3 1 2 4
M  V30 END BOND
M  V30 END CTAB
M  END
>  <Molecule Name>
tribromomethane

>  <Molecule Name 2>
tribromomethane

>  <Database>
Essential Oil Database

>  <InChI>
InChI=1S/CHBr3/c2-1(3)4/h1H

>  <InChI-Key>
DIKBFYAXUHHXCS-UHFFFAOYSA-N

>  <Smiles>
BrC(Br)Br

>  <Molecular Formula>
CHBr3

$$$$
2-phenylethylisothiocyanate
Actelion Java MolfileCreator 2.0

  0  0  0  0  0  0              0 V3000
M  V30 BEGIN CTAB
M  V30 COUNTS 11 11 0 0 0
M  V30 BEGIN ATOM
M  V30 1 S 0.0 0.0 0.0 0
M  V30 2 C 1.2946 -0.6651 0.0 0
M  V30 3 N 2.5893 -1.3422 0.0 0
M  V30 4 C 2.5062 -2.8388 0.0 0
M  V30 5 C 3.8009 -3.5039 0.0 0
M  V30 6 C 3.7177 -5.0006 0.0 0
M  V30 7 C 5.0124 -5.6657 0.0 0
M  V30 8 C 2.2568 -5.6657 0.0 0
M  V30 9 C 4.9293 -7.1623 0.0 0
M  V30 10 C 2.1736 -7.1623 0.0 0
M  V30 11 C 3.4683 -7.8394 0.0 0
M  V30 END ATOM
M  V30 BEGIN BOND
M  V30 1 2 1 2
M  V30 2 2 2 3
M  V30 3 1 3 4
M  V30 4 1 4 5
M  V30 5 1 5 6
M  V30 6 2 6 7
M  V30 7 1 6 8
M  V30 8 1 7 9
M  V30 9 2 8 10
M  V30 10 2 9 11
M  V30 11 1 10 11
M  V30 END BOND
M  V30 END CTAB
M  END
>  <Molecule Name>
2-phenylethylisothiocyanate

>  <Molecule Name 2>
2-phenylethylisothiocyanate

>  <Database>
Essential Oil Database

>  <InChI>
InChI=1S/C9H9NS/c11-8-10-7-6-9-4-2-1-3-5-9/h1-5H,6-7H2

>  <InChI-Key>
IZJDOKYDEWTZSO-UHFFFAOYSA-N

>  <Smiles>
S=C=NCCc1ccccc1

>  <Molecular Formula>
C9H9NS

$$$$
4-phenylbutylisothiocyanate
Actelion Java MolfileCreator 2.0

  0  0  0  0  0  0              0 V3000
M  V30 BEGIN CTAB
M  V30 COUNTS 13 13 0 0 0
M  V30 BEGIN ATOM
M  V30 1 S 0.0 0.0 0.0 0
M  V30 2 C 1.272 0.8869 0.0 0
M  V30 3 N 2.544 1.7855 0.0 0
M  V30 4 C 3.8161 1.0736 0.0 0
M  V30 5 C 5.0881 1.9722 0.0 0
M  V30 6 C 6.3602 1.2837 0.0 0
M  V30 7 C 7.6322 2.1823 0.0 0
M  V30 8 C 8.9043 1.4704 0.0 0
M  V30 9 C 10.1763 2.369 0.0 0
M  V30 10 C 8.8226 0.0 0.0 0
M  V30 11 C 11.4484 1.6571 0.0 0
M  V30 12 C 10.0946 -0.6535 0.0 0
M  V30 13 C 11.3667 0.1867 0.0 0
M  V30 END ATOM
M  V30 BEGIN BOND
M  V30 1 2 1 2
M  V30 2 2 2 3
M  V30 3 1 3 4
M  V30 4 1 4 5
M  V30 5 1 5 6
M  V30 6 1 6 7
M  V30 7 1 7 8
M  V30 8 2 8 9
M  V30 9 1 8 10
M  V30 10 1 9 11
M  V30 11 2 10 12
M  V30 12 2 11 13
M  V30 13 1 12 13
M  V30 END BOND
M  V30 END CTAB
M  END
>  <Molecule Name>
4-phenylbutylisothiocyanate

>  <Molecule Name 2>
4-phenylbutylisothiocyanate

>  <Database>
Essential Oil Database

>  <InChI>
InChI=1S/C11H13NS/c13-10-12-9-5-4-8-11-6-2-1-3-7-11/h1-3,6-7H,4-5,8-9H2

>  <InChI-Key>
CCBQOLFAKKAMLD-UHFFFAOYSA-N

>  <Smiles>
S=C=NCCCCc1ccccc1

>  <Molecular Formula>
C11H13NS

$$$$
isopropyl isothiocyanate
Actelion Java MolfileCreator 2.0

  0  0  0  0  0  0              0 V3000
M  V30 BEGIN CTAB
M  V30 COUNTS 6 5 0 0 0
M  V30 BEGIN ATOM
M  V30 1 S 0.0 0.0 0.0 0
M  V30 2 C 1.4894 0.0827 0.0 0
M  V30 3 N 2.9788 0.1654 0.0 0
M  V30 4 C 3.6526 -1.1229 0.0 0
M  V30 5 C 5.1421 -1.0402 0.0 0
M  V30 6 C 2.7542 -2.4114 0.0 0
M  V30 END ATOM
M  V30 BEGIN BOND
M  V30 1 2 1 2
M  V30 2 2 2 3
M  V30 3 1 3 4
M  V30 4 1 4 5
M  V30 5 1 4 6
M  V30 END BOND
M  V30 END CTAB
M  END
>  <Molecule Name>
isopropyl isothiocyanate

>  <Molecule Name 2>
isopropyl isothiocyanate

>  <Database>
Essential Oil Database

>  <InChI>
InChI=1S/C4H7NS/c1-4(2)5-3-6/h4H,1-2H3

>  <InChI-Key>
VHBFEIBMZHEWSX-UHFFFAOYSA-N

>  <Smiles>
CC(C)N=C=S

>  <Molecular Formula>
C4H7NS

$$$$
octyl isothiocyanate
Actelion Java MolfileCreator 2.0

  0  0  0  0  0  0              0 V3000
M  V30 BEGIN CTAB
M  V30 COUNTS 11 10 0 0 0
M  V30 BEGIN ATOM
M  V30 1 S 0.0 0.0 0.0 0
M  V30 2 C 1.2635 0.8624 0.0 0
M  V30 3 N 2.527 1.7248 0.0 0
M  V30 4 C 3.7906 1.0028 0.0 0
M  V30 5 C 5.0541 1.8652 0.0 0
M  V30 6 C 6.3177 1.1432 0.0 0
M  V30 7 C 7.5812 2.0056 0.0 0
M  V30 8 C 8.8448 1.2836 0.0 0
M  V30 9 C 10.1083 2.146 0.0 0
M  V30 10 C 11.3718 1.4239 0.0 0
M  V30 11 C 12.6354 2.2864 0.0 0
M  V30 END ATOM
M  V30 BEGIN BOND
M  V30 1 2 1 2
M  V30 2 2 2 3
M  V30 3 1 3 4
M  V30 4 1 4 5
M  V30 5 1 5 6
M  V30 6 1 6 7
M  V30 7 1 7 8
M  V30 8 1 8 9
M  V30 9 1 9 10
M  V30 10 1 10 11
M  V30 END BOND
M  V30 END CTAB
M  END
>  <Molecule Name>
octyl isothiocyanate

>  <Molecule Name 2>
octyl isothiocyanate

>  <Database>
Essential Oil Database

>  <InChI>
InChI=1S/C9H17NS/c1-2-3-4-5-6-7-8-10-9-11/h2-8H2,1H3

>  <InChI-Key>
YEZHGQZHWKJPCM-UHFFFAOYSA-N

>  <Smiles>
CCCCCCCCN=C=S

>  <Molecular Formula>
C9H17NS

$$$$
sec-butylisothiocyanate
Actelion Java MolfileCreator 2.0

  0  0  0  0  0  0              0 V3000
M  V30 BEGIN CTAB
M  V30 COUNTS 7 6 0 0 0
M  V30 BEGIN ATOM
M  V30 1 S 0.0 0.0 0.0 0
M  V30 2 C 1.4989 0.0832 0.0 0
M  V30 3 N 2.9978 0.1665 0.0 0
M  V30 4 C 3.6639 -1.1301 0.0 0 CFG=2
M  V30 5 C 2.7598 -2.4268 0.0 0
M  V30 6 C 5.1629 -1.0468 0.0 0
M  V30 7 C 3.426 -3.7234 0.0 0
M  V30 END ATOM
M  V30 BEGIN BOND
M  V30 1 2 1 2
M  V30 2 2 2 3
M  V30 3 1 3 4
M  V30 4 1 4 5
M  V30 5 1 4 6 CFG=1
M  V30 6 1 5 7
M  V30 END BOND
M  V30 BEGIN COLLECTION
M  V30 MDLV30/STERAC1 ATOMS=(1 4)
M  V30 END COLLECTION
M  V30 END CTAB
M  END
>  <Molecule Name>
sec-butylisothiocyanate

>  <Molecule Name 2>
sec-butylisothiocyanate

>  <Database>
Essential Oil Database

>  <InChI>
InChI=1S/C5H9NS/c1-3-5(2)6-4-7/h5H,3H2,1-2H3/t5-/m0/s1

>  <InChI-Key>
TUFJIDJGIQOYFY-YFKPBYRVSA-N

>  <Smiles>
CCC(C)N=C=S

>  <Molecular Formula>
C5H9NS

$$$$
(e)-3-ethyl-1,5-octadiene
Actelion Java MolfileCreator 2.0

  0  0  0  0  0  0              0 V3000
M  V30 BEGIN CTAB
M  V30 COUNTS 10 9 0 0 0
M  V30 BEGIN ATOM
M  V30 1 C 0.0 0.0 0.0 0
M  V30 2 C 1.4503 0.089 0.0 0
M  V30 3 C -0.8142 -1.234 0.0 0 CFG=2
M  V30 4 C -2.4427 -1.145 0.0 0
M  V30 5 C -0.1017 -2.4681 0.0 0
M  V30 6 C -3.2696 -2.3791 0.0 0
M  V30 7 C -0.9287 -3.7022 0.0 0
M  V30 8 C -4.8981 -2.29 0.0 0
M  V30 9 C -5.7251 -3.5241 0.0 0
M  V30 10 C -5.0126 -4.7582 0.0 0
M  V30 END ATOM
M  V30 BEGIN BOND
M  V30 1 2 1 2
M  V30 2 1 3 1 CFG=1
M  V30 3 1 3 4
M  V30 4 1 3 5
M  V30 5 1 4 6
M  V30 6 1 5 7
M  V30 7 2 6 8
M  V30 8 1 8 9
M  V30 9 1 9 10
M  V30 END BOND
M  V30 BEGIN COLLECTION
M  V30 MDLV30/STERAC1 ATOMS=(1 3)
M  V30 END COLLECTION
M  V30 END CTAB
M  END
>  <Molecule Name>
(e)-3-ethyl-1,5-octadiene

>  <Molecule Name 2>
(e)-3-ethyl-1,5-octadiene

>  <Database>
Essential Oil Database

>  <InChI>
InChI=1S/C10H18/c1-4-7-8-9-10(5-2)6-3/h5,7-8,10H,2,4,6,9H2,1,3H3/b8-7+/t10-/m0/s1

>  <InChI-Key>
DXYBMKOHVHUXNV-JARNTUPDSA-N

>  <Smiles>
CCC(C/C=C/CC)C=C

>  <Molecular Formula>
C10H18

$$$$
farnesyl acetaldehyde
Actelion Java MolfileCreator 2.0

  0  0  0  0  0  0              0 V3000
M  V30 BEGIN CTAB
M  V30 COUNTS 18 17 0 0 0
M  V30 BEGIN ATOM
M  V30 1 O 0.0 0.0 0.0 0
M  V30 2 C -1.5538 0.0849 0.0 0
M  V30 3 C -2.3429 -1.0925 0.0 0
M  V30 4 C -3.8967 -1.0075 0.0 0
M  V30 5 C -4.6858 -2.1851 0.0 0
M  V30 6 C -6.2396 -2.1001 0.0 0
M  V30 7 C -7.0287 -3.2776 0.0 0
M  V30 8 C -7.0287 -0.7526 0.0 0
M  V30 9 C -8.5826 -3.1926 0.0 0
M  V30 10 C -9.3716 -4.3702 0.0 0
M  V30 11 C -10.9255 -4.2852 0.0 0
M  V30 12 C -11.7145 -5.4627 0.0 0
M  V30 13 C -11.7145 -2.9377 0.0 0
M  V30 14 C -13.2684 -5.3777 0.0 0
M  V30 15 C -14.0575 -6.5553 0.0 0
M  V30 16 C -15.6113 -6.4703 0.0 0
M  V30 17 C -16.4004 -7.6478 0.0 0
M  V30 18 C -16.4004 -5.1228 0.0 0
M  V30 END ATOM
M  V30 BEGIN BOND
M  V30 1 2 1 2
M  V30 2 1 2 3
M  V30 3 1 3 4
M  V30 4 1 4 5
M  V30 5 2 5 6
M  V30 6 1 6 7
M  V30 7 1 6 8
M  V30 8 1 7 9
M  V30 9 1 9 10
M  V30 10 2 10 11
M  V30 11 1 11 12
M  V30 12 1 11 13
M  V30 13 1 12 14
M  V30 14 1 14 15
M  V30 15 2 15 16
M  V30 16 1 16 17
M  V30 17 1 16 18
M  V30 END BOND
M  V30 END CTAB
M  END
>  <Molecule Name>
farnesyl acetaldehyde

>  <Molecule Name 2>
farnesyl acetaldehyde

>  <Database>
Essential Oil Database

>  <InChI>
InChI=1S/C17H28O/c1-15(2)9-7-11-17(4)13-8-12-16(3)10-5-6-14-18/h9-10,13-14H,5-8,11-12H2,1-4H3/b16-10+,17-13+

>  <InChI-Key>
IDHMAJKSCCNULC-QKXOVSGLSA-N

>  <Smiles>
CC(C)=CCC/C(\C)=C/CC/C(\C)=C/CCC=O

>  <Molecular Formula>
C17H28O

$$$$
octyl nitrile
Actelion Java MolfileCreator 2.0

  0  0  0  0  0  0              0 V3000
M  V30 BEGIN CTAB
M  V30 COUNTS 9 8 0 0 0
M  V30 BEGIN ATOM
M  V30 1 N 0.0 0.0 0.0 0
M  V30 2 C 1.2619 0.8613 0.0 0
M  V30 3 C 2.5239 1.7226 0.0 0
M  V30 4 C 3.7859 1.0015 0.0 0
M  V30 5 C 5.0479 1.8629 0.0 0
M  V30 6 C 6.3098 1.1417 0.0 0
M  V30 7 C 7.5718 2.0031 0.0 0
M  V30 8 C 8.8338 1.282 0.0 0
M  V30 9 C 10.0958 2.1433 0.0 0
M  V30 END ATOM
M  V30 BEGIN BOND
M  V30 1 3 1 2
M  V30 2 1 2 3
M  V30 3 1 3 4
M  V30 4 1 4 5
M  V30 5 1 5 6
M  V30 6 1 6 7
M  V30 7 1 7 8
M  V30 8 1 8 9
M  V30 END BOND
M  V30 END CTAB
M  END
>  <Molecule Name>
octyl nitrile

>  <Molecule Name 2>
octyl nitrile

>  <Database>
Essential Oil Database

>  <InChI>
InChI=1S/C8H15N/c1-2-3-4-5-6-7-8-9/h2-7H2,1H3

>  <InChI-Key>
YSIMAPNUZAVQER-UHFFFAOYSA-N

>  <Smiles>
CCCCCCCC#N

>  <Molecular Formula>
C8H15N

$$$$
(z)-3-ethyl-1,5-octadiene
Actelion Java MolfileCreator 2.0

  0  0  0  0  0  0              0 V3000
M  V30 BEGIN CTAB
M  V30 COUNTS 10 9 0 0 0
M  V30 BEGIN ATOM
M  V30 1 C 0.0 0.0 0.0 0
M  V30 2 C 1.3876 0.0852 0.0 0
M  V30 3 C -0.779 1.3511 0.0 0 CFG=2
M  V30 4 C -2.337 1.4363 0.0 0
M  V30 5 C -0.0973 2.7022 0.0 0
M  V30 6 C -3.1282 2.7874 0.0 0
M  V30 7 C -0.8885 4.0533 0.0 0
M  V30 8 C -4.6862 2.8726 0.0 0
M  V30 9 C -5.4774 1.6919 0.0 0
M  V30 10 C -4.7958 0.5112 0.0 0
M  V30 END ATOM
M  V30 BEGIN BOND
M  V30 1 2 1 2
M  V30 2 1 3 1 CFG=3
M  V30 3 1 3 4
M  V30 4 1 3 5
M  V30 5 1 4 6
M  V30 6 1 5 7
M  V30 7 2 6 8
M  V30 8 1 8 9
M  V30 9 1 9 10
M  V30 END BOND
M  V30 BEGIN COLLECTION
M  V30 MDLV30/STERAC1 ATOMS=(1 3)
M  V30 END COLLECTION
M  V30 END CTAB
M  END
>  <Molecule Name>
(z)-3-ethyl-1,5-octadiene

>  <Molecule Name 2>
(z)-3-ethyl-1,5-octadiene

>  <Database>
Essential Oil Database

>  <InChI>
InChI=1S/C10H18/c1-4-7-8-9-10(5-2)6-3/h5,7-8,10H,2,4,6,9H2,1,3H3/b8-7-/t10-/m0/s1

>  <InChI-Key>
DXYBMKOHVHUXNV-DMEOUFDRSA-N

>  <Smiles>
CCC(C/C=C\CC)C=C

>  <Molecular Formula>
C10H18

$$$$
5-methylpentyl nitrile
Actelion Java MolfileCreator 2.0

  0  0  0  0  0  0              0 V3000
M  V30 BEGIN CTAB
M  V30 COUNTS 7 6 0 0 0
M  V30 BEGIN ATOM
M  V30 1 N 0.0 0.0 0.0 0
M  V30 2 C 1.2593 0.8595 0.0 0
M  V30 3 C 2.5187 1.7191 0.0 0
M  V30 4 C 3.7781 0.9995 0.0 0
M  V30 5 C 5.0374 1.859 0.0 0
M  V30 6 C 6.2968 1.1394 0.0 0
M  V30 7 C 7.5562 1.999 0.0 0
M  V30 END ATOM
M  V30 BEGIN BOND
M  V30 1 3 1 2
M  V30 2 1 2 3
M  V30 3 1 3 4
M  V30 4 1 4 5
M  V30 5 1 5 6
M  V30 6 1 6 7
M  V30 END BOND
M  V30 END CTAB
M  END
>  <Molecule Name>
5-methylpentyl nitrile

>  <Molecule Name 2>
5-methylpentyl nitrile

>  <Database>
Essential Oil Database

>  <InChI>
InChI=1S/C6H11N/c1-2-3-4-5-6-7/h2-5H2,1H3

>  <InChI-Key>
AILKHAQXUAOOFU-UHFFFAOYSA-N

>  <Smiles>
CCCCCC#N

>  <Molecular Formula>
C6H11N

$$$$
cyclooctasulfur
Actelion Java MolfileCreator 2.0

  0  0  0  0  0  0              0 V3000
M  V30 BEGIN CTAB
M  V30 COUNTS 8 8 0 0 0
M  V30 BEGIN ATOM
M  V30 1 S 0.0 0.0 0.0 0
M  V30 2 S 1.3393 -0.5404 0.0 0
M  V30 3 S -1.5038 -0.5404 0.0 0
M  V30 4 S 1.8797 -1.8797 0.0 0
M  V30 5 S -2.2087 -1.8797 0.0 0
M  V30 6 S 1.1748 -3.219 0.0 0
M  V30 7 S -1.6682 -3.219 0.0 0
M  V30 8 S -0.3289 -3.7595 0.0 0
M  V30 END ATOM
M  V30 BEGIN BOND
M  V30 1 1 1 2
M  V30 2 1 1 3
M  V30 3 1 2 4
M  V30 4 1 3 5
M  V30 5 1 4 6
M  V30 6 1 5 7
M  V30 7 1 6 8
M  V30 8 1 7 8
M  V30 END BOND
M  V30 END CTAB
M  END
>  <Molecule Name>
cyclooctasulfur

>  <Molecule Name 2>
cyclooctasulfur

>  <Database>
Essential Oil Database

>  <InChI>
InChI=1S/S8/c1-2-4-6-8-7-5-3-1

>  <InChI-Key>
JLQNHALFVCURHW-UHFFFAOYSA-N

>  <Smiles>
S1SSSSSSS1

>  <Molecular Formula>
S8

$$$$
2,6-dimethyl benzaldehyde
Actelion Java MolfileCreator 2.0

  0  0  0  0  0  0              0 V3000
M  V30 BEGIN CTAB
M  V30 COUNTS 10 10 0 0 0
M  V30 BEGIN ATOM
M  V30 1 O 0.0 0.0 0.0 0
M  V30 2 C 1.2635 -0.6491 0.0 0
M  V30 3 C 1.1824 -2.1097 0.0 0
M  V30 4 C 2.4459 -2.7589 0.0 0
M  V30 5 C -0.2434 -2.7589 0.0 0
M  V30 6 C 2.3648 -4.2195 0.0 0
M  V30 7 C 3.7094 -1.8779 0.0 0
M  V30 8 C -0.3245 -4.2195 0.0 0
M  V30 9 C -1.6692 -1.8779 0.0 0
M  V30 10 C 0.9389 -4.8687 0.0 0
M  V30 END ATOM
M  V30 BEGIN BOND
M  V30 1 2 1 2
M  V30 2 1 2 3
M  V30 3 2 3 4
M  V30 4 1 3 5
M  V30 5 1 4 6
M  V30 6 1 4 7
M  V30 7 2 5 8
M  V30 8 1 5 9
M  V30 9 2 6 10
M  V30 10 1 8 10
M  V30 END BOND
M  V30 END CTAB
M  END
>  <Molecule Name>
2,6-dimethyl benzaldehyde

>  <Molecule Name 2>
2,6-dimethyl benzaldehyde

>  <Database>
Essential Oil Database

>  <InChI>
InChI=1S/C9H10O/c1-7-4-3-5-8(2)9(7)6-10/h3-6H,1-2H3

>  <InChI-Key>
QOJQBWSZHCKOLL-UHFFFAOYSA-N

>  <Smiles>
Cc1cccc(C)c1C=O

>  <Molecular Formula>
C9H10O

$$$$
3,5-dimethyl anisole
Actelion Java MolfileCreator 2.0

  0  0  0  0  0  0              0 V3000
M  V30 BEGIN CTAB
M  V30 COUNTS 10 10 0 0 0
M  V30 BEGIN ATOM
M  V30 1 O 0.0 0.0 0.0 0
M  V30 2 C -0.081 -1.458 0.0 0
M  V30 3 C -1.4233 0.8794 0.0 0
M  V30 4 C 1.1803 -2.106 0.0 0
M  V30 5 C -1.5043 -2.106 0.0 0
M  V30 6 C 1.0993 -3.5641 0.0 0
M  V30 7 C -1.5853 -3.5641 0.0 0
M  V30 8 C -0.324 -4.2121 0.0 0
M  V30 9 C 2.3606 -4.2121 0.0 0
M  V30 10 C -3.0086 -4.2121 0.0 0
M  V30 END ATOM
M  V30 BEGIN BOND
M  V30 1 1 1 2
M  V30 2 1 1 3
M  V30 3 2 2 4
M  V30 4 1 2 5
M  V30 5 1 4 6
M  V30 6 2 5 7
M  V30 7 2 6 8
M  V30 8 1 6 9
M  V30 9 1 7 10
M  V30 10 1 7 8
M  V30 END BOND
M  V30 END CTAB
M  END
>  <Molecule Name>
3,5-dimethyl anisole

>  <Molecule Name 2>
3,5-dimethyl anisole

>  <Database>
Essential Oil Database

>  <InChI>
InChI=1S/C9H12O/c1-7-4-8(2)6-9(5-7)10-3/h4-6H,1-3H3

>  <InChI-Key>
JCHJBEZBHANKGA-UHFFFAOYSA-N

>  <Smiles>
Cc1cc(OC)cc(C)c1

>  <Molecular Formula>
C9H12O

$$$$
alpha-chamigrene
Actelion Java MolfileCreator 2.0

  0  0  0  0  0  0              0 V3000
M  V30 BEGIN CTAB
M  V30 COUNTS 15 16 0 0 0
M  V30 BEGIN ATOM
M  V30 1 C 0.0 0.0 0.0 0
M  V30 2 C 1.4183 0.087 0.0 0
M  V30 3 C -0.8087 -1.2068 0.0 0 CFG=2
M  V30 4 C -0.8087 1.381 0.0 0
M  V30 5 C 2.1275 -1.1197 0.0 0
M  V30 6 C -0.0995 -2.4137 0.0 0
M  V30 7 C -1.6174 0.1741 0.0 0
M  V30 8 C -1.6174 -2.4137 0.0 0
M  V30 9 C 1.3188 -2.3266 0.0 0
M  V30 10 C -0.2363 -3.832 0.0 0
M  V30 11 C -1.4556 -3.1353 0.0 0
M  V30 12 C -3.21 0.2612 0.0 0
M  V30 13 C -3.21 -2.3266 0.0 0
M  V30 14 C -4.0187 -0.9455 0.0 0
M  V30 15 C -5.6112 -0.8584 0.0 0
M  V30 END ATOM
M  V30 BEGIN BOND
M  V30 1 2 1 2
M  V30 2 1 1 3
M  V30 3 1 1 4
M  V30 4 1 2 5
M  V30 5 1 3 6 CFG=3
M  V30 6 1 3 7
M  V30 7 1 3 8
M  V30 8 1 5 9
M  V30 9 1 6 10
M  V30 10 1 6 11
M  V30 11 1 7 12
M  V30 12 1 8 13
M  V30 13 2 12 14
M  V30 14 1 14 15
M  V30 15 1 6 9
M  V30 16 1 13 14
M  V30 END BOND
M  V30 BEGIN COLLECTION
M  V30 MDLV30/STERAC1 ATOMS=(1 3)
M  V30 END COLLECTION
M  V30 END CTAB
M  END
>  <Molecule Name>
alpha-chamigrene

>  <Molecule Name 2>
alpha-chamigrene

>  <Database>
Essential Oil Database

>  <InChI>
InChI=1S/C15H24/c1-12-7-10-15(11-8-12)13(2)6-5-9-14(15,3)4/h6-7H,5,8-11H2,1-4H3/t15-/m0/s1

>  <InChI-Key>
SIBCECUUMHIAAM-HNNXBMFYSA-N

>  <Smiles>
CC1(C)C2(CC=C(C)CC2)C(C)=CCC1

>  <Molecular Formula>
C15H24

$$$$
anisole
Actelion Java MolfileCreator 2.0

  0  0  0  0  0  0              0 V3000
M  V30 BEGIN CTAB
M  V30 COUNTS 8 8 0 0 0
M  V30 BEGIN ATOM
M  V30 1 O 0.0 0.0 0.0 0
M  V30 2 C -0.0808 -1.4558 0.0 0
M  V30 3 C -1.4212 0.8781 0.0 0
M  V30 4 C 1.1785 -2.1029 0.0 0
M  V30 5 C -1.502 -2.1029 0.0 0
M  V30 6 C 1.0976 -3.5587 0.0 0
M  V30 7 C -1.5829 -3.5587 0.0 0
M  V30 8 C -0.3235 -4.2058 0.0 0
M  V30 END ATOM
M  V30 BEGIN BOND
M  V30 1 1 1 2
M  V30 2 1 1 3
M  V30 3 2 2 4
M  V30 4 1 2 5
M  V30 5 1 4 6
M  V30 6 2 5 7
M  V30 7 2 6 8
M  V30 8 1 7 8
M  V30 END BOND
M  V30 END CTAB
M  END
>  <Molecule Name>
anisole

>  <Molecule Name 2>
anisole

>  <Database>
Essential Oil Database

>  <InChI>
InChI=1S/C7H8O/c1-8-7-5-3-2-4-6-7/h2-6H,1H3

>  <InChI-Key>
RDOXTESZEPMUJZ-UHFFFAOYSA-N

>  <Smiles>
COc1ccccc1

>  <Molecular Formula>
C7H8O

$$$$
abietadiene
Actelion Java MolfileCreator 2.0

  0  0  0  0  0  0              0 V3000
M  V30 BEGIN CTAB
M  V30 COUNTS 20 22 0 0 0
M  V30 BEGIN ATOM
M  V30 1 C 0.0 0.0 0.0 0
M  V30 2 C -1.6142 0.0882 0.0 0
M  V30 3 C 0.7062 1.3998 0.0 0
M  V30 4 C 0.7062 -1.2233 0.0 0 CFG=1
M  V30 5 C -2.434 -1.135 0.0 0
M  V30 6 C 2.1439 1.4881 0.0 0
M  V30 7 C 2.1439 -1.135 0.0 0 CFG=2
M  V30 8 C -0.1135 -2.4466 0.0 0
M  V30 9 C -4.0483 -1.0467 0.0 0
M  V30 10 C -1.7278 -2.3583 0.0 0
M  V30 11 C 2.8502 0.2648 0.0 0 CFG=2
M  V30 12 C 2.8502 -2.3583 0.0 0
M  V30 13 C 1.3242 -2.3583 0.0 0
M  V30 14 C -4.8681 -2.2701 0.0 0
M  V30 15 C -4.8681 0.3531 0.0 0
M  V30 16 C 4.2879 0.3531 0.0 0
M  V30 17 C 4.2879 -2.2701 0.0 0
M  V30 18 C 4.9942 -0.8702 0.0 0
M  V30 19 C 3.9222 1.9422 0.0 0
M  V30 20 C 5.6248 0.9837 0.0 0
M  V30 END ATOM
M  V30 BEGIN BOND
M  V30 1 1 1 2
M  V30 2 2 1 3
M  V30 3 1 1 4
M  V30 4 2 2 5
M  V30 5 1 3 6
M  V30 6 1 4 7
M  V30 7 1 4 8 CFG=1
M  V30 8 1 5 9
M  V30 9 1 5 10
M  V30 10 1 11 6 CFG=1
M  V30 11 1 7 12
M  V30 12 1 7 13 CFG=1
M  V30 13 1 9 14
M  V30 14 1 9 15
M  V30 15 1 11 16
M  V30 16 1 12 17
M  V30 17 1 16 18
M  V30 18 1 16 19
M  V30 19 1 16 20
M  V30 20 1 7 11
M  V30 21 1 8 10
M  V30 22 1 17 18
M  V30 END BOND
M  V30 BEGIN COLLECTION
M  V30 MDLV30/STERAC1 ATOMS=(3 4 7 11)
M  V30 END COLLECTION
M  V30 END CTAB
M  END
>  <Molecule Name>
abietadiene

>  <Molecule Name 2>
abietadiene

>  <Database>
Essential Oil Database

>  <InChI>
InChI=1S/C20H32/c1-14(2)15-7-9-17-16(13-15)8-10-18-19(3,4)11-6-12-20(17,18)5/h8,13-14,17-18H,6-7,9-12H2,1-5H3/t17-,18-,20+/m0/s1

>  <InChI-Key>
BBPXZLJCPUPNGH-CMKODMSKSA-N

>  <Smiles>
CC(C)C1=CC2=CC[C@@H](C(C)(C)CCC3)[C@@]3(C)[C@H]2CC1

>  <Molecular Formula>
C20H32

$$$$
abietol
Actelion Java MolfileCreator 2.0

  0  0  0  0  0  0              0 V3000
M  V30 BEGIN CTAB
M  V30 COUNTS 21 23 0 0 0
M  V30 BEGIN ATOM
M  V30 1 O 0.0 0.0 0.0 0
M  V30 2 C -0.3543 -1.3685 0.0 0
M  V30 3 C -1.8206 -1.8083 0.0 0 CFG=1
M  V30 4 C -3.3846 -1.7228 0.0 0 CFG=1
M  V30 5 C -1.1363 -2.9936 0.0 0
M  V30 6 C -2.1749 -0.2688 0.0 0
M  V30 7 C -4.1788 -2.908 0.0 0 CFG=1
M  V30 8 C -4.1788 -0.3665 0.0 0
M  V30 9 C -1.9305 -4.1788 0.0 0
M  V30 10 C -5.7428 -2.8225 0.0 0 CFG=2
M  V30 11 C -3.4946 -4.0933 0.0 0
M  V30 12 C -4.973 -4.0933 0.0 0
M  V30 13 C -5.7428 -0.281 0.0 0
M  V30 14 C -6.5371 -1.4662 0.0 0
M  V30 15 C -6.5371 -4.0077 0.0 0
M  V30 16 C -8.1011 -1.3807 0.0 0
M  V30 17 C -8.1011 -3.9222 0.0 0
M  V30 18 C -8.8953 -2.5659 0.0 0
M  V30 19 C -10.4593 -2.4804 0.0 0
M  V30 20 C -11.2535 -3.6656 0.0 0
M  V30 21 C -11.2535 -1.1241 0.0 0
M  V30 END ATOM
M  V30 BEGIN BOND
M  V30 1 1 1 2
M  V30 2 1 2 3
M  V30 3 1 3 4
M  V30 4 1 3 5
M  V30 5 1 3 6 CFG=1
M  V30 6 1 4 7
M  V30 7 1 4 8 CFG=1
M  V30 8 1 5 9
M  V30 9 1 7 10
M  V30 10 1 7 11
M  V30 11 1 7 12 CFG=1
M  V30 12 1 8 13
M  V30 13 1 10 14
M  V30 14 1 10 15 CFG=1
M  V30 15 1 14 16
M  V30 16 1 15 17
M  V30 17 2 16 18
M  V30 18 1 18 19
M  V30 19 1 19 20
M  V30 20 1 19 21
M  V30 21 1 9 11
M  V30 22 2 13 14
M  V30 23 1 17 18
M  V30 END BOND
M  V30 BEGIN COLLECTION
M  V30 MDLV30/STERAC1 ATOMS=(4 3 4 7 10)
M  V30 END COLLECTION
M  V30 END CTAB
M  END
>  <Molecule Name>
abietol

>  <Molecule Name 2>
abietol

>  <Database>
Essential Oil Database

>  <InChI>
InChI=1S/C20H32O/c1-14(2)15-6-8-17-16(12-15)7-9-18-19(3,13-21)10-5-11-20(17,18)4/h7,12,14,17-18,21H,5-6,8-11,13H2,1-4H3/t17-,18-,19-,20+/m0/s1

>  <InChI-Key>
GQRUHVMVWNKUFW-LWYYNNOASA-N

>  <Smiles>
CC(C)C1=CC2=CC[C@@H]([C@](C)(CO)CCC3)[C@@]3(C)[C@H]2CC1

>  <Molecular Formula>
C20H32O

$$$$
sclarene
Actelion Java MolfileCreator 2.0

  0  0  0  0  0  0              0 V3000
M  V30 BEGIN CTAB
M  V30 COUNTS 20 21 0 0 0
M  V30 BEGIN ATOM
M  V30 1 C 0.0 0.0 0.0 0
M  V30 2 C 1.1845 -0.6838 0.0 0
M  V30 3 C -0.0854 1.5631 0.0 0 CFG=2
M  V30 4 C -1.3555 -0.6838 0.0 0
M  V30 5 C -1.4409 2.3568 0.0 0 CFG=1
M  V30 6 C 1.099 2.3568 0.0 0
M  V30 7 C -2.711 0.0976 0.0 0
M  V30 8 C -2.7964 1.673 0.0 0 CFG=2
M  V30 9 C -1.5264 3.9199 0.0 0
M  V30 10 C -0.2564 3.1506 0.0 0
M  V30 11 C 2.2835 1.673 0.0 0
M  V30 12 C -4.1519 2.4667 0.0 0
M  V30 13 C -2.8819 4.7259 0.0 0
M  V30 14 C 3.4681 2.4667 0.0 0
M  V30 15 C -4.2374 4.0298 0.0 0
M  V30 16 C -5.6906 2.8209 0.0 0
M  V30 17 C -4.7625 1.1723 0.0 0
M  V30 18 C 4.6526 1.7829 0.0 0
M  V30 19 C 3.3826 4.0298 0.0 0
M  V30 20 C 5.8372 2.5766 0.0 0
M  V30 END ATOM
M  V30 BEGIN BOND
M  V30 1 2 1 2
M  V30 2 1 1 3
M  V30 3 1 1 4
M  V30 4 1 3 5
M  V30 5 1 3 6 CFG=3
M  V30 6 1 4 7
M  V30 7 1 5 8
M  V30 8 1 5 9
M  V30 9 1 5 10 CFG=3
M  V30 10 1 6 11
M  V30 11 1 8 12
M  V30 12 1 9 13
M  V30 13 1 11 14
M  V30 14 1 12 15
M  V30 15 1 12 16
M  V30 16 1 12 17
M  V30 17 1 14 18
M  V30 18 2 14 19
M  V30 19 2 18 20
M  V30 20 1 8 7 CFG=3
M  V30 21 1 13 15
M  V30 END BOND
M  V30 BEGIN COLLECTION
M  V30 MDLV30/STERAC1 ATOMS=(3 3 5 8)
M  V30 END COLLECTION
M  V30 END CTAB
M  END
>  <Molecule Name>
sclarene

>  <Molecule Name 2>
sclarene

>  <Database>
Essential Oil Database

>  <InChI>
InChI=1S/C20H32/c1-7-15(2)9-11-17-16(3)10-12-18-19(4,5)13-8-14-20(17,18)6/h7,17-18H,1-3,8-14H2,4-6H3/t17-,18-,20+/m1/s1

>  <InChI-Key>
KYLKKZSVPLUGCC-GGPKGHCWSA-N

>  <Smiles>
CC(C)(CCC1)[C@@H](CC2)[C@]1(C)[C@H](CCC(C=C)=C)C2=C

>  <Molecular Formula>
C20H32

$$$$
(z)-2-heptenal
Actelion Java MolfileCreator 2.0

  0  0  0  0  0  0              0 V3000
M  V30 BEGIN CTAB
M  V30 COUNTS 8 7 0 0 0
M  V30 BEGIN ATOM
M  V30 1 O 0.0 0.0 0.0 0
M  V30 2 C -1.5361 0.084 0.0 0
M  V30 3 C -2.3161 1.4161 0.0 0
M  V30 4 C -3.8523 1.5001 0.0 0
M  V30 5 C -4.6323 0.336 0.0 0
M  V30 6 C -6.1685 0.42 0.0 0
M  V30 7 C -6.9485 -0.744 0.0 0
M  V30 8 C -8.4847 -0.66 0.0 0
M  V30 END ATOM
M  V30 BEGIN BOND
M  V30 1 2 1 2
M  V30 2 1 2 3
M  V30 3 2 3 4
M  V30 4 1 4 5
M  V30 5 1 5 6
M  V30 6 1 6 7
M  V30 7 1 7 8
M  V30 END BOND
M  V30 END CTAB
M  END
>  <Molecule Name>
(z)-2-heptenal

>  <Molecule Name 2>
(z)-2-heptenal

>  <Database>
Essential Oil Database

>  <InChI>
InChI=1S/C7H12O/c1-2-3-4-5-6-7-8/h5-7H,2-4H2,1H3/b6-5-

>  <InChI-Key>
NDFKTBCGKNOHPJ-WAYWQWQTSA-N

>  <Smiles>
CCCC/C=C\C=O

>  <Molecular Formula>
C7H12O

$$$$
(z)-hexenyl benzoate
Actelion Java MolfileCreator 2.0

  0  0  0  0  0  0              0 V3000
M  V30 BEGIN CTAB
M  V30 COUNTS 15 15 0 0 0
M  V30 BEGIN ATOM
M  V30 1 O 0.0 0.0 0.0 0
M  V30 2 C -1.3752 -0.6938 0.0 0
M  V30 3 O -2.7505 0.0991 0.0 0
M  V30 4 C -1.4619 -2.1062 0.0 0
M  V30 5 C -2.8372 1.6849 0.0 0
M  V30 6 C -0.2601 -2.8 0.0 0
M  V30 7 C -2.8372 -2.8 0.0 0
M  V30 8 C -4.2124 2.4903 0.0 0
M  V30 9 C -0.3469 -4.2124 0.0 0
M  V30 10 C -2.9239 -4.2124 0.0 0
M  V30 11 C -5.5877 1.7841 0.0 0
M  V30 12 C -1.7221 -4.9062 0.0 0
M  V30 13 C -5.6744 0.3716 0.0 0
M  V30 14 C -7.0497 -0.3221 0.0 0
M  V30 15 C -8.4249 0.4708 0.0 0
M  V30 END ATOM
M  V30 BEGIN BOND
M  V30 1 2 1 2
M  V30 2 1 2 3
M  V30 3 1 2 4
M  V30 4 1 3 5
M  V30 5 2 4 6
M  V30 6 1 4 7
M  V30 7 2 5 8
M  V30 8 1 6 9
M  V30 9 2 7 10
M  V30 10 1 8 11
M  V30 11 2 9 12
M  V30 12 1 11 13
M  V30 13 1 13 14
M  V30 14 1 14 15
M  V30 15 1 10 12
M  V30 END BOND
M  V30 END CTAB
M  END
>  <Molecule Name>
(z)-hexenyl benzoate

>  <Molecule Name 2>
(z)-hexenyl benzoate

>  <Database>
Essential Oil Database

>  <InChI>
InChI=1S/C13H16O2/c1-2-3-4-8-11-15-13(14)12-9-6-5-7-10-12/h5-11H,2-4H2,1H3/b11-8-

>  <InChI-Key>
ALTSDDHTSDGUCM-FLIBITNWSA-N

>  <Smiles>
CCCC/C=C\OC(c1ccccc1)=O

>  <Molecular Formula>
C13H16O2

$$$$
2-hexenylisovalerate
Actelion Java MolfileCreator 2.0

  0  0  0  0  0  0              0 V3000
M  V30 BEGIN CTAB
M  V30 COUNTS 13 12 0 0 0
M  V30 BEGIN ATOM
M  V30 1 O 0.0 0.0 0.0 0
M  V30 2 C -0.8297 -1.2382 0.0 0
M  V30 3 O -2.4638 -1.1489 0.0 0 CHG=-1
M  V30 4 C -0.1148 -2.4765 0.0 0 CFG=2
M  V30 5 C -0.9446 -3.7148 0.0 0
M  V30 6 C 1.3404 -2.3872 0.0 0
M  V30 7 C -2.5787 -3.6255 0.0 0
M  V30 8 C 2.0553 -0.9702 0.0 0
M  V30 9 C 2.0553 -3.6255 0.0 0
M  V30 10 C -3.4085 -4.8638 0.0 0
M  V30 11 C -2.6936 -6.1021 0.0 0
M  V30 12 C -3.5234 -7.3404 0.0 0
M  V30 13 C -2.8085 -8.5787 0.0 0
M  V30 END ATOM
M  V30 BEGIN BOND
M  V30 1 2 1 2
M  V30 2 1 2 3
M  V30 3 1 2 4
M  V30 4 1 4 5 CFG=1
M  V30 5 1 4 6
M  V30 6 2 5 7
M  V30 7 1 6 8
M  V30 8 1 6 9
M  V30 9 1 7 10
M  V30 10 1 10 11
M  V30 11 1 11 12
M  V30 12 1 12 13
M  V30 END BOND
M  V30 BEGIN COLLECTION
M  V30 MDLV30/STERAC1 ATOMS=(1 4)
M  V30 END COLLECTION
M  V30 END CTAB
M  END
>  <Molecule Name>
2-hexenylisovalerate

>  <Molecule Name 2>
2-hexenylisovalerate

>  <Database>
Essential Oil Database

>  <InChI>
InChI=1S/C11H20O2/c1-4-5-6-7-8-10(9(2)3)11(12)13/h7-10H,4-6H2,1-3H3,(H,12,13)/p-1/b8-7+/t10-/m1/s1

>  <InChI-Key>
PTJBNLTVUSFNOA-QROSGCPLSA-M

>  <Smiles>
CCCC/C=C/C(C(C)C)C([O-])=O

>  <Molecular Formula>
C11H19O2

$$$$
2-pentenol
Actelion Java MolfileCreator 2.0

  0  0  0  0  0  0              0 V3000
M  V30 BEGIN CTAB
M  V30 COUNTS 6 5 0 0 0
M  V30 BEGIN ATOM
M  V30 1 O 0.0 0.0 0.0 0
M  V30 2 C 0.6984 -1.2097 0.0 0
M  V30 3 C -0.0997 -2.4195 0.0 0
M  V30 4 C -1.6961 -2.3322 0.0 0
M  V30 5 C -2.5068 -3.5419 0.0 0
M  V30 6 C -4.1031 -3.4546 0.0 0
M  V30 END ATOM
M  V30 BEGIN BOND
M  V30 1 1 1 2
M  V30 2 1 2 3
M  V30 3 2 3 4
M  V30 4 1 4 5
M  V30 5 1 5 6
M  V30 END BOND
M  V30 END CTAB
M  END
>  <Molecule Name>
2-pentenol

>  <Molecule Name 2>
2-pentenol

>  <Database>
Essential Oil Database

>  <InChI>
InChI=1S/C5H10O/c1-2-3-4-5-6/h3-4,6H,2,5H2,1H3/b4-3+

>  <InChI-Key>
BTSIZIIPFNVMHF-ONEGZZNKSA-N

>  <Smiles>
CC/C=C/CO

>  <Molecular Formula>
C5H10O

$$$$
p-menth-1-en-9-al
Actelion Java MolfileCreator 2.0

  0  0  0  0  0  0              0 V3000
M  V30 BEGIN CTAB
M  V30 COUNTS 11 11 0 0 0
M  V30 BEGIN ATOM
M  V30 1 O 0.0 0.0 0.0 0
M  V30 2 C -0.0848 1.5517 0.0 0
M  V30 3 C 1.091 2.3397 0.0 0
M  V30 4 C 1.0062 3.8915 0.0 0
M  V30 5 C 2.267 1.6487 0.0 0
M  V30 6 C -0.3394 4.6795 0.0 0
M  V30 7 C 2.1821 4.6795 0.0 0
M  V30 8 C -0.4243 6.2313 0.0 0
M  V30 9 C 2.0973 6.2313 0.0 0
M  V30 10 C 0.7516 7.0193 0.0 0
M  V30 11 C 0.6667 8.5711 0.0 0
M  V30 END ATOM
M  V30 BEGIN BOND
M  V30 1 2 1 2
M  V30 2 1 2 3
M  V30 3 1 3 4
M  V30 4 1 3 5
M  V30 5 1 4 6
M  V30 6 1 4 7
M  V30 7 1 6 8
M  V30 8 1 7 9
M  V30 9 2 8 10
M  V30 10 1 10 11
M  V30 11 1 9 10
M  V30 END BOND
M  V30 END CTAB
M  END
>  <Molecule Name>
p-menth-1-en-9-al

>  <Molecule Name 2>
p-menth-1-en-9-al

>  <Database>
Essential Oil Database

>  <InChI>
InChI=1S/C10H16O/c1-8-3-5-10(6-4-8)9(2)7-11/h3,7,9-10H,4-6H2,1-2H3

>  <InChI-Key>
UMEJBWOWZDRULR-UHFFFAOYSA-N

>  <Smiles>
CC(C1CC=C(C)CC1)C=O

>  <Molecular Formula>
C10H16O

$$$$
cis-3-hexenylbenzoate
Actelion Java MolfileCreator 2.0

  0  0  0  0  0  0              0 V3000
M  V30 BEGIN CTAB
M  V30 COUNTS 15 15 0 0 0
M  V30 BEGIN ATOM
M  V30 1 O 0.0 0.0 0.0 0
M  V30 2 C -1.3892 -0.7008 0.0 0
M  V30 3 O -2.7784 0.1001 0.0 0 CHG=-1
M  V30 4 C -1.4768 -2.1276 0.0 0
M  V30 5 C -0.2628 -2.8285 0.0 0
M  V30 6 C -2.866 -2.8285 0.0 0
M  V30 7 C -0.3504 -4.2553 0.0 0
M  V30 8 C -2.9536 -4.2553 0.0 0
M  V30 9 C -1.7396 -4.9561 0.0 0
M  V30 10 C 0.8635 -4.9561 0.0 0
M  V30 11 C 2.0775 -4.1426 0.0 0
M  V30 12 C 1.9899 -2.5406 0.0 0
M  V30 13 C 0.6007 -1.7271 0.0 0
M  V30 14 C 0.5131 -0.1251 0.0 0
M  V30 15 C 1.7271 0.6758 0.0 0
M  V30 END ATOM
M  V30 BEGIN BOND
M  V30 1 2 1 2
M  V30 2 1 2 3
M  V30 3 1 2 4
M  V30 4 2 4 5
M  V30 5 1 4 6
M  V30 6 1 5 7
M  V30 7 2 6 8
M  V30 8 2 7 9
M  V30 9 1 7 10
M  V30 10 2 10 11
M  V30 11 1 11 12
M  V30 12 1 12 13
M  V30 13 1 13 14
M  V30 14 1 14 15
M  V30 15 1 8 9
M  V30 END BOND
M  V30 END CTAB
M  END
>  <Molecule Name>
cis-3-hexenylbenzoate

>  <Molecule Name 2>
cis-3-hexenylbenzoate

>  <Database>
Essential Oil Database

>  <InChI>
InChI=1S/C13H16O2/c1-2-3-4-5-7-11-8-6-9-12(10-11)13(14)15/h5-10H,2-4H2,1H3,(H,14,15)/p-1/b7-5-

>  <InChI-Key>
KQNYBDACXLEBLR-ALCCZGGFSA-M

>  <Smiles>
CCCC/C=C\c1cccc(C([O-])=O)c1

>  <Molecular Formula>
C13H15O2

$$$$
5-indanol
Actelion Java MolfileCreator 2.0

  0  0  0  0  0  0              0 V3000
M  V30 BEGIN CTAB
M  V30 COUNTS 10 11 0 0 0
M  V30 BEGIN ATOM
M  V30 1 O 0.0 0.0 0.0 0
M  V30 2 C -1.3534 -0.6593 0.0 0
M  V30 3 C -2.7069 0.1619 0.0 0
M  V30 4 C -1.4344 -2.0475 0.0 0
M  V30 5 C -4.0603 -0.4974 0.0 0
M  V30 6 C -2.7879 -2.7185 0.0 0
M  V30 7 C -4.1413 -1.8855 0.0 0
M  V30 8 C -5.5411 0.0347 0.0 0
M  V30 9 C -5.622 -2.2557 0.0 0
M  V30 10 C -6.4896 -1.0758 0.0 0
M  V30 END ATOM
M  V30 BEGIN BOND
M  V30 1 1 1 2
M  V30 2 2 2 3
M  V30 3 1 2 4
M  V30 4 1 3 5
M  V30 5 2 4 6
M  V30 6 2 5 7
M  V30 7 1 5 8
M  V30 8 1 7 9
M  V30 9 1 8 10
M  V30 10 1 6 7
M  V30 11 1 9 10
M  V30 END BOND
M  V30 END CTAB
M  END
>  <Molecule Name>
5-indanol

>  <Molecule Name 2>
5-indanol

>  <Database>
Essential Oil Database

>  <InChI>
InChI=1S/C9H10O/c10-9-5-4-7-2-1-3-8(7)6-9/h4-6,10H,1-3H2

>  <InChI-Key>
PEHSSTUGJUBZBI-UHFFFAOYSA-N

>  <Smiles>
Oc1cc(CCC2)c2cc1

>  <Molecular Formula>
C9H10O

$$$$
benzyl nitrite
Actelion Java MolfileCreator 2.0

  0  0  0  0  0  0              0 V3000
M  V30 BEGIN CTAB
M  V30 COUNTS 10 10 0 0 0
M  V30 BEGIN ATOM
M  V30 1 O 0.0 0.0 0.0 0
M  V30 2 N 1.2917 -0.6755 0.0 0
M  V30 3 O 1.2088 -2.1687 0.0 0
M  V30 4 C 2.5005 -2.8324 0.0 0
M  V30 5 C 2.4176 -4.3256 0.0 0
M  V30 6 C 3.7093 -4.9892 0.0 0
M  V30 7 C 0.9599 -4.9892 0.0 0
M  V30 8 C 3.6264 -6.4825 0.0 0
M  V30 9 C 0.8769 -6.4825 0.0 0
M  V30 10 C 2.1687 -7.1461 0.0 0
M  V30 END ATOM
M  V30 BEGIN BOND
M  V30 1 2 1 2
M  V30 2 1 2 3
M  V30 3 1 3 4
M  V30 4 1 4 5
M  V30 5 2 5 6
M  V30 6 1 5 7
M  V30 7 1 6 8
M  V30 8 2 7 9
M  V30 9 2 8 10
M  V30 10 1 9 10
M  V30 END BOND
M  V30 END CTAB
M  END
>  <Molecule Name>
benzyl nitrite

>  <Molecule Name 2>
benzyl nitrite

>  <Database>
Essential Oil Database

>  <InChI>
InChI=1S/C7H7NO2/c9-8-10-6-7-4-2-1-3-5-7/h1-5H,6H2

>  <InChI-Key>
IYYGLLJDALWAMD-UHFFFAOYSA-N

>  <Smiles>
O=NOCc1ccccc1

>  <Molecular Formula>
C7H7NO2

$$$$
ethyl-4-pentenoate
Actelion Java MolfileCreator 2.0

  0  0  0  0  0  0              0 V3000
M  V30 BEGIN CTAB
M  V30 COUNTS 9 8 0 0 0
M  V30 BEGIN ATOM
M  V30 1 O 0.0 0.0 0.0 0
M  V30 2 C -1.5745 0.0861 0.0 0
M  V30 3 O -2.3741 1.4515 0.0 0 CHG=-1
M  V30 4 C -2.3741 -1.1071 0.0 0
M  V30 5 C -3.9487 -1.021 0.0 0
M  V30 6 C -4.7483 -2.2142 0.0 0
M  V30 7 C -6.3228 -2.1281 0.0 0
M  V30 8 C -7.1224 -3.3213 0.0 0
M  V30 9 C -6.4335 -4.5145 0.0 0
M  V30 END ATOM
M  V30 BEGIN BOND
M  V30 1 2 1 2
M  V30 2 1 2 3
M  V30 3 1 2 4
M  V30 4 1 4 5
M  V30 5 1 5 6
M  V30 6 2 6 7
M  V30 7 1 7 8
M  V30 8 1 8 9
M  V30 END BOND
M  V30 END CTAB
M  END
>  <Molecule Name>
ethyl-4-pentenoate

>  <Molecule Name 2>
ethyl-4-pentenoate

>  <Database>
Essential Oil Database

>  <InChI>
InChI=1S/C7H12O2/c1-2-3-4-5-6-7(8)9/h3-4H,2,5-6H2,1H3,(H,8,9)/p-1/b4-3+

>  <InChI-Key>
KFXPOIKSDYRVKS-ONEGZZNKSA-M

>  <Smiles>
CC/C=C/CCC([O-])=O

>  <Molecular Formula>
C7H11O2

$$$$
3-ethyl-4-methylpentanol
Actelion Java MolfileCreator 2.0

  0  0  0  0  0  0              0 V3000
M  V30 BEGIN CTAB
M  V30 COUNTS 9 8 0 0 0
M  V30 BEGIN ATOM
M  V30 1 O 0.0 0.0 0.0 0
M  V30 2 C 1.2931 -0.6643 0.0 0
M  V30 3 C 1.2101 -2.1592 0.0 0
M  V30 4 C 2.5032 -2.8236 0.0 0 CFG=1
M  V30 5 C 2.4202 -4.3184 0.0 0
M  V30 6 C 3.7964 -1.9219 0.0 0
M  V30 7 C 3.7134 -4.9947 0.0 0
M  V30 8 C 0.9609 -4.9947 0.0 0
M  V30 9 C 5.0896 -2.5863 0.0 0
M  V30 END ATOM
M  V30 BEGIN BOND
M  V30 1 1 1 2
M  V30 2 1 2 3
M  V30 3 1 4 3 CFG=3
M  V30 4 1 4 5
M  V30 5 1 4 6
M  V30 6 1 5 7
M  V30 7 1 5 8
M  V30 8 1 6 9
M  V30 END BOND
M  V30 BEGIN COLLECTION
M  V30 MDLV30/STERAC1 ATOMS=(1 4)
M  V30 END COLLECTION
M  V30 END CTAB
M  END
>  <Molecule Name>
3-ethyl-4-methylpentanol

>  <Molecule Name 2>
3-ethyl-4-methylpentanol

>  <Database>
Essential Oil Database

>  <InChI>
InChI=1S/C8H18O/c1-4-8(5-6-9)7(2)3/h7-9H,4-6H2,1-3H3/t8-/m0/s1

>  <InChI-Key>
RWIFVESHBHTZEM-QMMMGPOBSA-N

>  <Smiles>
CCC(CCO)C(C)C

>  <Molecular Formula>
C8H18O

$$$$
3-methyl-3-butenal
Actelion Java MolfileCreator 2.0

  0  0  0  0  0  0              0 V3000
M  V30 BEGIN CTAB
M  V30 COUNTS 6 5 0 0 0
M  V30 BEGIN ATOM
M  V30 1 O 0.0 0.0 0.0 0
M  V30 2 C -0.7575 1.3139 0.0 0
M  V30 3 C -0.0946 2.6278 0.0 0
M  V30 4 C -0.8641 3.9417 0.0 0
M  V30 5 C -0.2012 5.2556 0.0 0
M  V30 6 C -2.3792 4.0245 0.0 0
M  V30 END ATOM
M  V30 BEGIN BOND
M  V30 1 2 1 2
M  V30 2 1 2 3
M  V30 3 1 3 4
M  V30 4 2 4 5
M  V30 5 1 4 6
M  V30 END BOND
M  V30 END CTAB
M  END
>  <Molecule Name>
3-methyl-3-butenal

>  <Molecule Name 2>
3-methyl-3-butenal

>  <Database>
Essential Oil Database

>  <InChI>
InChI=1S/C5H8O/c1-5(2)3-4-6/h4H,1,3H2,2H3

>  <InChI-Key>
VEEFADFWCHSFIU-UHFFFAOYSA-N

>  <Smiles>
CC(CC=O)=C

>  <Molecular Formula>
C5H8O

$$$$
benzyl
Actelion Java MolfileCreator 2.0

  0  0  0  0  0  0              0 V3000
M  V30 BEGIN CTAB
M  V30 COUNTS 7 7 0 0 0
M  V30 BEGIN ATOM
M  V30 1 C 0.0 0.0 0.0 0
M  V30 2 C 1.2281 -0.709 0.0 0
M  V30 3 C -1.4054 -0.709 0.0 0
M  V30 4 C -0.0886 1.6206 0.0 0 RAD=2
M  V30 5 C 1.1395 -2.1524 0.0 0
M  V30 6 C -1.494 -2.1524 0.0 0
M  V30 7 C -0.2658 -2.8615 0.0 0
M  V30 END ATOM
M  V30 BEGIN BOND
M  V30 1 2 1 2
M  V30 2 1 1 3
M  V30 3 1 1 4
M  V30 4 1 2 5
M  V30 5 2 3 6
M  V30 6 2 5 7
M  V30 7 1 6 7
M  V30 END BOND
M  V30 END CTAB
M  END
>  <Molecule Name>
benzyl

>  <Molecule Name 2>
benzyl

>  <Database>
Essential Oil Database

>  <InChI>
InChI=1S/C7H7/c1-7-5-3-2-4-6-7/h2-6H,1H2

>  <InChI-Key>
SLRMQYXOBQWXCR-UHFFFAOYSA-N

>  <Smiles>
[CH2]c1ccccc1

>  <Molecular Formula>
C7H7

$$$$
hexenyl acetate
Actelion Java MolfileCreator 2.0

  0  0  0  0  0  0              0 V3000
M  V30 BEGIN CTAB
M  V30 COUNTS 10 9 0 0 0
M  V30 BEGIN ATOM
M  V30 1 O 0.0 0.0 0.0 0
M  V30 2 C -0.8282 -1.236 0.0 0
M  V30 3 O -2.4592 -1.1468 0.0 0
M  V30 4 C -0.1146 -2.472 0.0 0
M  V30 5 C -3.2875 -2.3828 0.0 0
M  V30 6 C -4.9185 -2.2936 0.0 0
M  V30 7 C -5.7468 -3.5296 0.0 0
M  V30 8 C -5.0332 -4.7656 0.0 0
M  V30 9 C -5.8615 -6.0016 0.0 0
M  V30 10 C -5.1479 -7.2376 0.0 0
M  V30 END ATOM
M  V30 BEGIN BOND
M  V30 1 2 1 2
M  V30 2 1 2 3
M  V30 3 1 2 4
M  V30 4 1 3 5
M  V30 5 2 5 6
M  V30 6 1 6 7
M  V30 7 1 7 8
M  V30 8 1 8 9
M  V30 9 1 9 10
M  V30 END BOND
M  V30 END CTAB
M  END
>  <Molecule Name>
hexenyl acetate

>  <Molecule Name 2>
hexenyl acetate

>  <Database>
Essential Oil Database

>  <InChI>
InChI=1S/C8H14O2/c1-3-4-5-6-7-10-8(2)9/h6-7H,3-5H2,1-2H3/b7-6+

>  <InChI-Key>
YDZCHDQXPLJVBG-VOTSOKGWSA-N

>  <Smiles>
CCCC/C=C/OC(C)=O

>  <Molecular Formula>
C8H14O2

$$$$
hepten-2-ol
Actelion Java MolfileCreator 2.0

  0  0  0  0  0  0              0 V3000
M  V30 BEGIN CTAB
M  V30 COUNTS 8 7 0 0 0
M  V30 BEGIN ATOM
M  V30 1 O 0.0 0.0 0.0 0
M  V30 2 C -0.0883 1.6151 0.0 0
M  V30 3 C -1.4889 2.4353 0.0 0
M  V30 4 C 1.1356 2.4353 0.0 0
M  V30 5 C 2.3596 1.716 0.0 0
M  V30 6 C 3.5835 2.5362 0.0 0
M  V30 7 C 4.8075 1.817 0.0 0
M  V30 8 C 6.0314 2.6372 0.0 0
M  V30 END ATOM
M  V30 BEGIN BOND
M  V30 1 1 1 2
M  V30 2 2 2 3
M  V30 3 1 2 4
M  V30 4 1 4 5
M  V30 5 1 5 6
M  V30 6 1 6 7
M  V30 7 1 7 8
M  V30 END BOND
M  V30 END CTAB
M  END
>  <Molecule Name>
hepten-2-ol

>  <Molecule Name 2>
hepten-2-ol

>  <Database>
Essential Oil Database

>  <InChI>
InChI=1S/C7H14O/c1-3-4-5-6-7(2)8/h8H,2-6H2,1H3

>  <InChI-Key>
XXYOEHRZCDHOOF-UHFFFAOYSA-N

>  <Smiles>
CCCCCC(O)=C

>  <Molecular Formula>
C7H14O

$$$$
3-buten-2-one
Actelion Java MolfileCreator 2.0

  0  0  0  0  0  0              0 V3000
M  V30 BEGIN CTAB
M  V30 COUNTS 5 4 0 0 0
M  V30 BEGIN ATOM
M  V30 1 O 0.0 0.0 0.0 0
M  V30 2 C 1.4305 0.0794 0.0 0
M  V30 3 C 2.0663 1.4759 0.0 0
M  V30 4 C 2.0663 -1.158 0.0 0
M  V30 5 C 1.2034 2.8724 0.0 0
M  V30 END ATOM
M  V30 BEGIN BOND
M  V30 1 2 1 2
M  V30 2 1 2 3
M  V30 3 1 2 4
M  V30 4 2 3 5
M  V30 END BOND
M  V30 END CTAB
M  END
>  <Molecule Name>
3-buten-2-one

>  <Molecule Name 2>
3-buten-2-one

>  <Database>
Essential Oil Database

>  <InChI>
InChI=1S/C4H6O/c1-3-4(2)5/h3H,1H2,2H3

>  <InChI-Key>
FUSUHKVFWTUUBE-UHFFFAOYSA-N

>  <Smiles>
CC(C=C)=O

>  <Molecular Formula>
C4H6O

$$$$
6(e),8(e)-heptadecadiene
Actelion Java MolfileCreator 2.0

  0  0  0  0  0  0              0 V3000
M  V30 BEGIN CTAB
M  V30 COUNTS 17 16 0 0 0
M  V30 BEGIN ATOM
M  V30 1 C 0.0 0.0 0.0 0
M  V30 2 C -1.3803 0.8083 0.0 0
M  V30 3 C -0.087 -1.4176 0.0 0
M  V30 4 C -1.4674 2.4001 0.0 0
M  V30 5 C 1.1192 -2.1265 0.0 0
M  V30 6 C -2.8478 3.2084 0.0 0
M  V30 7 C 2.3255 -1.3182 0.0 0
M  V30 8 C -2.9348 4.8002 0.0 0
M  V30 9 C 3.5317 -2.027 0.0 0
M  V30 10 C -4.3152 5.6085 0.0 0
M  V30 11 C 4.738 -1.2187 0.0 0
M  V30 12 C -4.4022 7.2003 0.0 0
M  V30 13 C 5.9443 -1.9275 0.0 0
M  V30 14 C -5.7826 7.9962 0.0 0
M  V30 15 C 7.1506 -1.1192 0.0 0
M  V30 16 C 8.3569 -1.828 0.0 0
M  V30 17 C 9.5631 -1.0197 0.0 0
M  V30 END ATOM
M  V30 BEGIN BOND
M  V30 1 1 1 2
M  V30 2 2 1 3
M  V30 3 2 2 4
M  V30 4 1 3 5
M  V30 5 1 4 6
M  V30 6 1 5 7
M  V30 7 1 6 8
M  V30 8 1 7 9
M  V30 9 1 8 10
M  V30 10 1 9 11
M  V30 11 1 10 12
M  V30 12 1 11 13
M  V30 13 1 12 14
M  V30 14 1 13 15
M  V30 15 1 15 16
M  V30 16 1 16 17
M  V30 END BOND
M  V30 END CTAB
M  END
>  <Molecule Name>
6(e),8(e)-heptadecadiene

>  <Molecule Name 2>
6(e),8(e)-heptadecadiene

>  <Database>
Essential Oil Database

>  <InChI>
InChI=1S/C17H32/c1-3-5-7-9-11-13-15-17-16-14-12-10-8-6-4-2/h11,13,15,17H,3-10,12,14,16H2,1-2H3/b13-11+,17-15+

>  <InChI-Key>
JDQICSQQNYKNLY-SBLPRGNDSA-N

>  <Smiles>
CCCCCCCC/C=C/C=C/CCCCC

>  <Molecular Formula>
C17H32

$$$$
1-octadecene
Actelion Java MolfileCreator 2.0

  0  0  0  0  0  0              0 V3000
M  V30 BEGIN CTAB
M  V30 COUNTS 18 17 0 0 0
M  V30 BEGIN ATOM
M  V30 1 C 0.0 0.0 0.0 0
M  V30 2 C -1.4408 -0.6979 0.0 0
M  V30 3 C 1.2832 -0.6979 0.0 0
M  V30 4 C 2.5665 0.135 0.0 0
M  V30 5 C 3.8498 -0.5515 0.0 0
M  V30 6 C 5.1331 0.2814 0.0 0
M  V30 7 C 6.4163 -0.4052 0.0 0
M  V30 8 C 7.6996 0.4277 0.0 0
M  V30 9 C 8.9829 -0.2589 0.0 0
M  V30 10 C 10.2662 0.574 0.0 0
M  V30 11 C 11.5494 -0.1238 0.0 0
M  V30 12 C 12.8327 0.7091 0.0 0
M  V30 13 C 14.116 0.0225 0.0 0
M  V30 14 C 15.3993 0.8555 0.0 0
M  V30 15 C 16.6825 0.1688 0.0 0
M  V30 16 C 17.9658 1.0018 0.0 0
M  V30 17 C 19.2491 0.3039 0.0 0
M  V30 18 C 20.5324 1.1369 0.0 0
M  V30 END ATOM
M  V30 BEGIN BOND
M  V30 1 2 1 2
M  V30 2 1 1 3
M  V30 3 1 3 4
M  V30 4 1 4 5
M  V30 5 1 5 6
M  V30 6 1 6 7
M  V30 7 1 7 8
M  V30 8 1 8 9
M  V30 9 1 9 10
M  V30 10 1 10 11
M  V30 11 1 11 12
M  V30 12 1 12 13
M  V30 13 1 13 14
M  V30 14 1 14 15
M  V30 15 1 15 16
M  V30 16 1 16 17
M  V30 17 1 17 18
M  V30 END BOND
M  V30 END CTAB
M  END
>  <Molecule Name>
1-octadecene

>  <Molecule Name 2>
1-octadecene

>  <Database>
Essential Oil Database

>  <InChI>
InChI=1S/C18H36/c1-3-5-7-9-11-13-15-17-18-16-14-12-10-8-6-4-2/h3H,1,4-18H2,2H3

>  <InChI-Key>
CCCMONHAUSKTEQ-UHFFFAOYSA-N

>  <Smiles>
CCCCCCCCCCCCCCCCC=C

>  <Molecular Formula>
C18H36

$$$$
2-methyl-1-octadecene
Actelion Java MolfileCreator 2.0

  0  0  0  0  0  0              0 V3000
M  V30 BEGIN CTAB
M  V30 COUNTS 19 18 0 0 0
M  V30 BEGIN ATOM
M  V30 1 C 0.0 0.0 0.0 0
M  V30 2 C -1.4409 -0.7269 0.0 0
M  V30 3 C 1.2591 -0.7269 0.0 0
M  V30 4 C -0.0908 1.6616 0.0 0
M  V30 5 C 2.5183 0.1168 0.0 0
M  V30 6 C 3.7775 -0.6101 0.0 0
M  V30 7 C 5.0367 0.2206 0.0 0
M  V30 8 C 6.2959 -0.5062 0.0 0
M  V30 9 C 7.5551 0.3245 0.0 0
M  V30 10 C 8.8143 -0.4024 0.0 0
M  V30 11 C 10.0735 0.4283 0.0 0
M  V30 12 C 11.3327 -0.2985 0.0 0
M  V30 13 C 12.5919 0.5452 0.0 0
M  V30 14 C 13.8511 -0.1817 0.0 0
M  V30 15 C 15.1103 0.649 0.0 0
M  V30 16 C 16.3695 -0.0778 0.0 0
M  V30 17 C 17.6287 0.7529 0.0 0
M  V30 18 C 18.8879 0.0259 0.0 0
M  V30 19 C 20.147 0.8697 0.0 0
M  V30 END ATOM
M  V30 BEGIN BOND
M  V30 1 2 1 2
M  V30 2 1 1 3
M  V30 3 1 1 4
M  V30 4 1 3 5
M  V30 5 1 5 6
M  V30 6 1 6 7
M  V30 7 1 7 8
M  V30 8 1 8 9
M  V30 9 1 9 10
M  V30 10 1 10 11
M  V30 11 1 11 12
M  V30 12 1 12 13
M  V30 13 1 13 14
M  V30 14 1 14 15
M  V30 15 1 15 16
M  V30 16 1 16 17
M  V30 17 1 17 18
M  V30 18 1 18 19
M  V30 END BOND
M  V30 END CTAB
M  END
>  <Molecule Name>
2-methyl-1-octadecene

>  <Molecule Name 2>
2-methyl-1-octadecene

>  <Database>
Essential Oil Database

>  <InChI>
InChI=1S/C19H38/c1-4-5-6-7-8-9-10-11-12-13-14-15-16-17-18-19(2)3/h2,4-18H2,1,3H3

>  <InChI-Key>
BRZBAFBEFONLMB-UHFFFAOYSA-N

>  <Smiles>
CCCCCCCCCCCCCCCCC(C)=C

>  <Molecular Formula>
C19H38

$$$$
(z)-2-eicosene
Actelion Java MolfileCreator 2.0

  0  0  0  0  0  0              0 V3000
M  V30 BEGIN CTAB
M  V30 COUNTS 20 19 0 0 0
M  V30 BEGIN ATOM
M  V30 1 C 0.0 0.0 0.0 0
M  V30 2 C -1.4355 0.8406 0.0 0
M  V30 3 C 1.2544 0.8406 0.0 0
M  V30 4 C -1.526 2.4959 0.0 0
M  V30 5 C 2.5089 0.1163 0.0 0
M  V30 6 C 3.7633 0.957 0.0 0
M  V30 7 C 5.0178 0.2327 0.0 0
M  V30 8 C 6.2722 1.0734 0.0 0
M  V30 9 C 7.5267 0.3491 0.0 0
M  V30 10 C 8.7812 1.1897 0.0 0
M  V30 11 C 10.0356 0.4655 0.0 0
M  V30 12 C 11.2901 1.3061 0.0 0
M  V30 13 C 12.5445 0.5819 0.0 0
M  V30 14 C 13.799 1.4225 0.0 0
M  V30 15 C 15.0534 0.6983 0.0 0
M  V30 16 C 16.3079 1.5389 0.0 0
M  V30 17 C 17.5624 0.8147 0.0 0
M  V30 18 C 18.8168 1.6553 0.0 0
M  V30 19 C 20.0713 0.9311 0.0 0
M  V30 20 C 21.3257 1.7717 0.0 0
M  V30 END ATOM
M  V30 BEGIN BOND
M  V30 1 2 1 2
M  V30 2 1 1 3
M  V30 3 1 2 4
M  V30 4 1 3 5
M  V30 5 1 5 6
M  V30 6 1 6 7
M  V30 7 1 7 8
M  V30 8 1 8 9
M  V30 9 1 9 10
M  V30 10 1 10 11
M  V30 11 1 11 12
M  V30 12 1 12 13
M  V30 13 1 13 14
M  V30 14 1 14 15
M  V30 15 1 15 16
M  V30 16 1 16 17
M  V30 17 1 17 18
M  V30 18 1 18 19
M  V30 19 1 19 20
M  V30 END BOND
M  V30 END CTAB
M  END
>  <Molecule Name>
(z)-2-eicosene

>  <Molecule Name 2>
(z)-2-eicosene

>  <Database>
Essential Oil Database

>  <InChI>
InChI=1S/C20H40/c1-3-5-7-9-11-13-15-17-19-20-18-16-14-12-10-8-6-4-2/h3,5H,4,6-20H2,1-2H3/b5-3-

>  <InChI-Key>
VHMBMZSDFOQAHR-HYXAFXHYSA-N

>  <Smiles>
CCCCCCCCCCCCCCCCC/C=C\C

>  <Molecular Formula>
C20H40

$$$$
1,1-diethoxy-2-methyl butane
Actelion Java MolfileCreator 2.0

  0  0  0  0  0  0              0 V3000
M  V30 BEGIN CTAB
M  V30 COUNTS 11 10 0 0 0
M  V30 BEGIN ATOM
M  V30 1 O 0.0 0.0 0.0 0
M  V30 2 C 1.2178 -0.703 0.0 0
M  V30 3 C -0.0878 1.607 0.0 0
M  V30 4 O 2.4356 0.1004 0.0 0
M  V30 5 C 1.1299 -2.1343 0.0 0 CFG=2
M  V30 6 C -1.4814 2.423 0.0 0
M  V30 7 C 2.3477 1.7074 0.0 0
M  V30 8 C 2.3477 -2.8374 0.0 0
M  V30 9 C -0.2636 -2.8374 0.0 0
M  V30 10 C 3.5655 2.5235 0.0 0
M  V30 11 C 2.2598 -4.2686 0.0 0
M  V30 END ATOM
M  V30 BEGIN BOND
M  V30 1 1 1 2
M  V30 2 1 1 3
M  V30 3 1 2 4
M  V30 4 1 2 5
M  V30 5 1 3 6
M  V30 6 1 4 7
M  V30 7 1 5 8
M  V30 8 1 5 9 CFG=3
M  V30 9 1 7 10
M  V30 10 1 8 11
M  V30 END BOND
M  V30 BEGIN COLLECTION
M  V30 MDLV30/STERAC1 ATOMS=(1 5)
M  V30 END COLLECTION
M  V30 END CTAB
M  END
>  <Molecule Name>
1,1-diethoxy-2-methyl butane

>  <Molecule Name 2>
1,1-diethoxy-2-methyl butane

>  <Database>
Essential Oil Database

>  <InChI>
InChI=1S/C9H20O2/c1-5-8(4)9(10-6-2)11-7-3/h8-9H,5-7H2,1-4H3/t8-/m0/s1

>  <InChI-Key>
PAPSQZAQCBGYCJ-QMMMGPOBSA-N

>  <Smiles>
CCC(C)C(OCC)OCC

>  <Molecular Formula>
C9H20O2

$$$$
1-butoxy-1-ethoxy ethane
Actelion Java MolfileCreator 2.0

  0  0  0  0  0  0              0 V3000
M  V30 BEGIN CTAB
M  V30 COUNTS 10 9 0 0 0
M  V30 BEGIN ATOM
M  V30 1 O 0.0 0.0 0.0 0
M  V30 2 C -1.3832 -0.6409 0.0 0 CFG=2
M  V30 3 C 1.2257 -0.6409 0.0 0
M  V30 4 O -2.7664 0.2249 0.0 0
M  V30 5 C -1.4619 -2.0579 0.0 0
M  V30 6 C 2.4515 0.2249 0.0 0
M  V30 7 C -4.1496 -0.416 0.0 0
M  V30 8 C 3.6773 -0.416 0.0 0
M  V30 9 C -5.5328 0.4498 0.0 0
M  V30 10 C 4.903 0.4498 0.0 0
M  V30 END ATOM
M  V30 BEGIN BOND
M  V30 1 1 1 2
M  V30 2 1 1 3
M  V30 3 1 2 4
M  V30 4 1 2 5 CFG=1
M  V30 5 1 3 6
M  V30 6 1 4 7
M  V30 7 1 6 8
M  V30 8 1 7 9
M  V30 9 1 8 10
M  V30 END BOND
M  V30 BEGIN COLLECTION
M  V30 MDLV30/STERAC1 ATOMS=(1 2)
M  V30 END COLLECTION
M  V30 END CTAB
M  END
>  <Molecule Name>
1-butoxy-1-ethoxy ethane

>  <Molecule Name 2>
1-butoxy-1-ethoxy ethane

>  <Database>
Essential Oil Database

>  <InChI>
InChI=1S/C8H18O2/c1-4-6-7-10-8(3)9-5-2/h8H,4-7H2,1-3H3/t8-/m0/s1

>  <InChI-Key>
VULXTAWRXFGMKL-QMMMGPOBSA-N

>  <Smiles>
CCCCOC(C)OCC

>  <Molecular Formula>
C8H18O2

$$$$
1-ethoxy-1-pentoxyethane
Actelion Java MolfileCreator 2.0

  0  0  0  0  0  0              0 V3000
M  V30 BEGIN CTAB
M  V30 COUNTS 11 10 0 0 0
M  V30 BEGIN ATOM
M  V30 1 O 0.0 0.0 0.0 0
M  V30 2 C 1.2237 -0.6399 0.0 0 CFG=2
M  V30 3 C -1.3809 -0.6399 0.0 0
M  V30 4 O 2.4475 0.2245 0.0 0
M  V30 5 C 1.1451 -2.0545 0.0 0
M  V30 6 C -2.7619 0.2245 0.0 0
M  V30 7 C 3.6713 -0.4154 0.0 0
M  V30 8 C -4.1428 -0.4154 0.0 0
M  V30 9 C 4.895 0.449 0.0 0
M  V30 10 C -5.5238 0.449 0.0 0
M  V30 11 C -6.9047 -0.1908 0.0 0
M  V30 END ATOM
M  V30 BEGIN BOND
M  V30 1 1 1 2
M  V30 2 1 1 3
M  V30 3 1 2 4
M  V30 4 1 2 5 CFG=3
M  V30 5 1 3 6
M  V30 6 1 4 7
M  V30 7 1 6 8
M  V30 8 1 7 9
M  V30 9 1 8 10
M  V30 10 1 10 11
M  V30 END BOND
M  V30 BEGIN COLLECTION
M  V30 MDLV30/STERAC1 ATOMS=(1 2)
M  V30 END COLLECTION
M  V30 END CTAB
M  END
>  <Molecule Name>
1-ethoxy-1-pentoxyethane

>  <Molecule Name 2>
1-ethoxy-1-pentoxyethane

>  <Database>
Essential Oil Database

>  <InChI>
InChI=1S/C9H20O2/c1-4-6-7-8-11-9(3)10-5-2/h9H,4-8H2,1-3H3/t9-/m0/s1

>  <InChI-Key>
QMLYOIJQQWWNKE-VIFPVBQESA-N

>  <Smiles>
CCCCCOC(C)OCC

>  <Molecular Formula>
C9H20O2

$$$$
3-methylbutyl decanoate
Actelion Java MolfileCreator 2.0

  0  0  0  0  0  0              0 V3000
M  V30 BEGIN CTAB
M  V30 COUNTS 17 16 0 0 0
M  V30 BEGIN ATOM
M  V30 1 O 0.0 0.0 0.0 0
M  V30 2 C -0.0856 1.5665 0.0 0
M  V30 3 O 1.1014 2.3619 0.0 0
M  V30 4 C -1.4441 2.3619 0.0 0
M  V30 5 C 2.2885 1.6644 0.0 0
M  V30 6 C -2.8025 1.6644 0.0 0
M  V30 7 C 3.4756 2.4598 0.0 0
M  V30 8 C -4.161 2.4598 0.0 0
M  V30 9 C 4.6627 1.7623 0.0 0
M  V30 10 C -5.5194 1.7623 0.0 0
M  V30 11 C 5.8499 2.57 0.0 0
M  V30 12 C 4.5771 0.3671 0.0 0
M  V30 13 C -6.8779 2.57 0.0 0
M  V30 14 C -8.2363 1.8724 0.0 0
M  V30 15 C -9.5948 2.6679 0.0 0
M  V30 16 C -10.9532 1.9703 0.0 0
M  V30 17 C -12.3117 2.7658 0.0 0
M  V30 END ATOM
M  V30 BEGIN BOND
M  V30 1 2 1 2
M  V30 2 1 2 3
M  V30 3 1 2 4
M  V30 4 1 3 5
M  V30 5 1 4 6
M  V30 6 1 5 7
M  V30 7 1 6 8
M  V30 8 1 7 9
M  V30 9 1 8 10
M  V30 10 1 9 11
M  V30 11 1 9 12
M  V30 12 1 10 13
M  V30 13 1 13 14
M  V30 14 1 14 15
M  V30 15 1 15 16
M  V30 16 1 16 17
M  V30 END BOND
M  V30 END CTAB
M  END
>  <Molecule Name>
3-methylbutyl decanoate

>  <Molecule Name 2>
3-methylbutyl decanoate

>  <Database>
Essential Oil Database

>  <InChI>
InChI=1S/C15H30O2/c1-4-5-6-7-8-9-10-11-15(16)17-13-12-14(2)3/h14H,4-13H2,1-3H3

>  <InChI-Key>
XDOGFYDZGUDBQY-UHFFFAOYSA-N

>  <Smiles>
CCCCCCCCCC(OCCC(C)C)=O

>  <Molecular Formula>
C15H30O2

$$$$
3-methylbutyl dodecanoate
Actelion Java MolfileCreator 2.0

  0  0  0  0  0  0              0 V3000
M  V30 BEGIN CTAB
M  V30 COUNTS 19 18 0 0 0
M  V30 BEGIN ATOM
M  V30 1 O 0.0 0.0 0.0 0
M  V30 2 C -0.0853 1.5598 0.0 0
M  V30 3 O 1.0967 2.3642 0.0 0
M  V30 4 C -1.438 2.3642 0.0 0
M  V30 5 C 2.2789 1.6695 0.0 0
M  V30 6 C -2.7907 1.6695 0.0 0
M  V30 7 C 3.461 2.4738 0.0 0
M  V30 8 C -4.1434 2.4738 0.0 0
M  V30 9 C 4.6431 1.7792 0.0 0
M  V30 10 C -5.4961 1.7792 0.0 0
M  V30 11 C 5.8252 2.5713 0.0 0
M  V30 12 C 4.5578 0.3899 0.0 0
M  V30 13 C -6.8489 2.5713 0.0 0
M  V30 14 C -8.2016 1.8767 0.0 0
M  V30 15 C -9.5543 2.6688 0.0 0
M  V30 16 C -10.907 1.9742 0.0 0
M  V30 17 C -12.2597 2.7663 0.0 0
M  V30 18 C -13.6124 2.0717 0.0 0
M  V30 19 C -14.9652 2.8638 0.0 0
M  V30 END ATOM
M  V30 BEGIN BOND
M  V30 1 2 1 2
M  V30 2 1 2 3
M  V30 3 1 2 4
M  V30 4 1 3 5
M  V30 5 1 4 6
M  V30 6 1 5 7
M  V30 7 1 6 8
M  V30 8 1 7 9
M  V30 9 1 8 10
M  V30 10 1 9 11
M  V30 11 1 9 12
M  V30 12 1 10 13
M  V30 13 1 13 14
M  V30 14 1 14 15
M  V30 15 1 15 16
M  V30 16 1 16 17
M  V30 17 1 17 18
M  V30 18 1 18 19
M  V30 END BOND
M  V30 END CTAB
M  END
>  <Molecule Name>
3-methylbutyl dodecanoate

>  <Molecule Name 2>
3-methylbutyl dodecanoate

>  <Database>
Essential Oil Database

>  <InChI>
InChI=1S/C17H34O2/c1-4-5-6-7-8-9-10-11-12-13-17(18)19-15-14-16(2)3/h16H,4-15H2,1-3H3

>  <InChI-Key>
FVKRIDSRWFEQME-UHFFFAOYSA-N

>  <Smiles>
CCCCCCCCCCCC(OCCC(C)C)=O

>  <Molecular Formula>
C17H34O2

$$$$
3-methylhexane
Actelion Java MolfileCreator 2.0

  0  0  0  0  0  0              0 V3000
M  V30 BEGIN CTAB
M  V30 COUNTS 7 6 0 0 0
M  V30 BEGIN ATOM
M  V30 1 C 0.0 0.0 0.0 0 CFG=2
M  V30 2 C 1.2351 0.8612 0.0 0
M  V30 3 C -1.3938 0.8612 0.0 0
M  V30 4 C -0.0793 -1.4277 0.0 0
M  V30 5 C 2.4703 0.2266 0.0 0
M  V30 6 C -2.7876 0.2266 0.0 0
M  V30 7 C 3.7054 1.0878 0.0 0
M  V30 END ATOM
M  V30 BEGIN BOND
M  V30 1 1 1 2
M  V30 2 1 1 3
M  V30 3 1 1 4 CFG=1
M  V30 4 1 2 5
M  V30 5 1 3 6
M  V30 6 1 5 7
M  V30 END BOND
M  V30 BEGIN COLLECTION
M  V30 MDLV30/STERAC1 ATOMS=(1 1)
M  V30 END COLLECTION
M  V30 END CTAB
M  END
>  <Molecule Name>
3-methylhexane

>  <Molecule Name 2>
3-methylhexane

>  <Database>
Essential Oil Database

>  <InChI>
InChI=1S/C7H16/c1-4-6-7(3)5-2/h7H,4-6H2,1-3H3/t7-/m0/s1

>  <InChI-Key>
VLJXXKKOSFGPHI-ZETCQYMHSA-N

>  <Smiles>
CCCC(C)CC

>  <Molecular Formula>
C7H16

$$$$
2-hexyl-3-methylmaleicanhydride
Actelion Java MolfileCreator 2.0

  0  0  0  0  0  0              0 V3000
M  V30 BEGIN CTAB
M  V30 COUNTS 14 14 0 0 0
M  V30 BEGIN ATOM
M  V30 1 O 0.0 0.0 0.0 0
M  V30 2 C -1.207 -0.9052 0.0 0
M  V30 3 O -2.7912 -0.4777 0.0 0
M  V30 4 C -1.1316 -2.3386 0.0 0
M  V30 5 C -3.6085 -1.7099 0.0 0
M  V30 6 C -2.6152 -2.9044 0.0 0
M  V30 7 C 0.1005 -3.0553 0.0 0
M  V30 8 O -5.2179 -1.7854 0.0 0
M  V30 9 C -3.0427 -4.3126 0.0 0
M  V30 10 C 1.3327 -2.238 0.0 0
M  V30 11 C 2.5649 -2.9547 0.0 0
M  V30 12 C 3.7971 -2.1374 0.0 0
M  V30 13 C 5.0293 -2.8541 0.0 0
M  V30 14 C 6.2615 -2.0368 0.0 0
M  V30 END ATOM
M  V30 BEGIN BOND
M  V30 1 2 1 2
M  V30 2 1 2 3
M  V30 3 1 2 4
M  V30 4 1 3 5
M  V30 5 2 4 6
M  V30 6 1 4 7
M  V30 7 2 5 8
M  V30 8 1 6 9
M  V30 9 1 7 10
M  V30 10 1 10 11
M  V30 11 1 11 12
M  V30 12 1 12 13
M  V30 13 1 13 14
M  V30 14 1 5 6
M  V30 END BOND
M  V30 END CTAB
M  END
>  <Molecule Name>
2-hexyl-3-methylmaleicanhydride

>  <Molecule Name 2>
2-hexyl-3-methylmaleicanhydride

>  <Database>
Essential Oil Database

>  <InChI>
InChI=1S/C11H16O3/c1-3-4-5-6-7-9-8(2)10(12)14-11(9)13/h3-7H2,1-2H3

>  <InChI-Key>
SAYHBWSPMUSNEJ-UHFFFAOYSA-N

>  <Smiles>
CCCCCCC(C(O1)=O)=C(C)C1=O

>  <Molecular Formula>
C11H16O3

$$$$
9-(z)-tricosene
Actelion Java MolfileCreator 2.0

  0  0  0  0  0  0              0 V3000
M  V30 BEGIN CTAB
M  V30 COUNTS 23 22 0 0 0
M  V30 BEGIN ATOM
M  V30 1 C 0.0 0.0 0.0 0
M  V30 2 C -1.3855 0.7988 0.0 0
M  V30 3 C 1.2107 0.7988 0.0 0
M  V30 4 C -1.4729 2.3966 0.0 0
M  V30 5 C 2.4215 0.0998 0.0 0
M  V30 6 C -2.8584 3.2079 0.0 0
M  V30 7 C 3.6323 0.9112 0.0 0
M  V30 8 C -2.9458 4.8056 0.0 0
M  V30 9 C 4.8431 0.2121 0.0 0
M  V30 10 C -4.3313 5.617 0.0 0
M  V30 11 C 6.0539 1.0235 0.0 0
M  V30 12 C -4.4187 7.2147 0.0 0
M  V30 13 C 7.2647 0.3245 0.0 0
M  V30 14 C -5.8042 8.0136 0.0 0
M  V30 15 C 8.4754 1.1358 0.0 0
M  V30 16 C -5.8916 9.6113 0.0 0
M  V30 17 C 9.6862 0.4368 0.0 0
M  V30 18 C -7.2771 10.4227 0.0 0
M  V30 19 C 10.897 1.2482 0.0 0
M  V30 20 C 12.1078 0.5492 0.0 0
M  V30 21 C 13.3186 1.3605 0.0 0
M  V30 22 C 14.5294 0.6615 0.0 0
M  V30 23 C 15.7401 1.4729 0.0 0
M  V30 END ATOM
M  V30 BEGIN BOND
M  V30 1 2 1 2
M  V30 2 1 1 3
M  V30 3 1 2 4
M  V30 4 1 3 5
M  V30 5 1 4 6
M  V30 6 1 5 7
M  V30 7 1 6 8
M  V30 8 1 7 9
M  V30 9 1 8 10
M  V30 10 1 9 11
M  V30 11 1 10 12
M  V30 12 1 11 13
M  V30 13 1 12 14
M  V30 14 1 13 15
M  V30 15 1 14 16
M  V30 16 1 15 17
M  V30 17 1 16 18
M  V30 18 1 17 19
M  V30 19 1 19 20
M  V30 20 1 20 21
M  V30 21 1 21 22
M  V30 22 1 22 23
M  V30 END BOND
M  V30 END CTAB
M  END
>  <Molecule Name>
9-(z)-tricosene

>  <Molecule Name 2>
9-(z)-tricosene

>  <Database>
Essential Oil Database

>  <InChI>
InChI=1S/C23H46/c1-3-5-7-9-11-13-15-17-19-21-23-22-20-18-16-14-12-10-8-6-4-2/h17,19H,3-16,18,20-23H2,1-2H3/b19-17-

>  <InChI-Key>
IGOWHGRNPLFNDJ-ZPHPHTNESA-N

>  <Smiles>
CCCCCCCCCCCCC/C=C\CCCCCCCC

>  <Molecular Formula>
C23H46

$$$$
1,2-dimethylcyclopentane
Actelion Java MolfileCreator 2.0

  0  0  0  0  0  0              0 V3000
M  V30 BEGIN CTAB
M  V30 COUNTS 7 7 0 0 0
M  V30 BEGIN ATOM
M  V30 1 C 0.0 0.0 0.0 0
M  V30 2 C 1.1496 -0.7919 0.0 0
M  V30 3 C -1.3285 -0.7919 0.0 0
M  V30 4 C -0.0894 1.635 0.0 0
M  V30 5 C 0.562 -2.1715 0.0 0
M  V30 6 C 2.5292 -0.2043 0.0 0
M  V30 7 C -0.9197 -2.1715 0.0 0
M  V30 END ATOM
M  V30 BEGIN BOND
M  V30 1 1 1 2
M  V30 2 1 1 3
M  V30 3 1 1 4
M  V30 4 1 2 5
M  V30 5 1 2 6
M  V30 6 1 3 7
M  V30 7 1 5 7
M  V30 END BOND
M  V30 END CTAB
M  END
>  <Molecule Name>
1,2-dimethylcyclopentane

>  <Molecule Name 2>
1,2-dimethylcyclopentane

>  <Database>
Essential Oil Database

>  <InChI>
InChI=1S/C7H14/c1-6-4-3-5-7(6)2/h6-7H,3-5H2,1-2H3

>  <InChI-Key>
RIRARCHMRDHZAR-UHFFFAOYSA-N

>  <Smiles>
CC1C(C)CCC1

>  <Molecular Formula>
C7H14

$$$$
1,3-dimethylcyclopentane
Actelion Java MolfileCreator 2.0

  0  0  0  0  0  0              0 V3000
M  V30 BEGIN CTAB
M  V30 COUNTS 7 7 0 0 0
M  V30 BEGIN ATOM
M  V30 1 C 0.0 0.0 0.0 0
M  V30 2 C 1.1602 -0.7993 0.0 0
M  V30 3 C -1.3407 -0.7993 0.0 0
M  V30 4 C -0.0902 1.6502 0.0 0
M  V30 5 C 0.5672 -2.1916 0.0 0
M  V30 6 C -0.9282 -2.1916 0.0 0
M  V30 7 C 1.3794 -3.3519 0.0 0
M  V30 END ATOM
M  V30 BEGIN BOND
M  V30 1 1 1 2
M  V30 2 1 1 3
M  V30 3 1 1 4
M  V30 4 1 2 5
M  V30 5 1 3 6
M  V30 6 1 5 7
M  V30 7 1 5 6
M  V30 END BOND
M  V30 END CTAB
M  END
>  <Molecule Name>
1,3-dimethylcyclopentane

>  <Molecule Name 2>
1,3-dimethylcyclopentane

>  <Database>
Essential Oil Database

>  <InChI>
InChI=1S/C7H14/c1-6-3-4-7(2)5-6/h6-7H,3-5H2,1-2H3

>  <InChI-Key>
XAZKFISIRYLAEE-UHFFFAOYSA-N

>  <Smiles>
CC1CC(C)CC1

>  <Molecular Formula>
C7H14

$$$$
2-methylheptane
Actelion Java MolfileCreator 2.0

  0  0  0  0  0  0              0 V3000
M  V30 BEGIN CTAB
M  V30 COUNTS 8 7 0 0 0
M  V30 BEGIN ATOM
M  V30 1 C 0.0 0.0 0.0 0
M  V30 2 C 1.2452 0.8796 0.0 0
M  V30 3 C -1.4052 0.8796 0.0 0
M  V30 4 C -0.0799 -1.4394 0.0 0
M  V30 5 C 2.4905 0.217 0.0 0
M  V30 6 C 3.7357 1.0967 0.0 0
M  V30 7 C 4.981 0.4227 0.0 0
M  V30 8 C 6.2263 1.3023 0.0 0
M  V30 END ATOM
M  V30 BEGIN BOND
M  V30 1 1 1 2
M  V30 2 1 1 3
M  V30 3 1 1 4
M  V30 4 1 2 5
M  V30 5 1 5 6
M  V30 6 1 6 7
M  V30 7 1 7 8
M  V30 END BOND
M  V30 END CTAB
M  END
>  <Molecule Name>
2-methylheptane

>  <Molecule Name 2>
2-methylheptane

>  <Database>
Essential Oil Database

>  <InChI>
InChI=1S/C8H18/c1-4-5-6-7-8(2)3/h8H,4-7H2,1-3H3

>  <InChI-Key>
JVSWJIKNEAIKJW-UHFFFAOYSA-N

>  <Smiles>
CCCCCC(C)C

>  <Molecular Formula>
C8H18

$$$$
3,3-dimethylpentane
Actelion Java MolfileCreator 2.0

  0  0  0  0  0  0              0 V3000
M  V30 BEGIN CTAB
M  V30 COUNTS 7 6 0 0 0
M  V30 BEGIN ATOM
M  V30 1 C 0.0 0.0 0.0 0
M  V30 2 C -0.0868 -1.4142 0.0 0
M  V30 3 C -0.0868 1.5879 0.0 0
M  V30 4 C 1.4142 0.0868 0.0 0
M  V30 5 C -1.5879 0.0868 0.0 0
M  V30 6 C 1.1165 -2.109 0.0 0
M  V30 7 C -1.4639 2.3943 0.0 0
M  V30 END ATOM
M  V30 BEGIN BOND
M  V30 1 1 1 2
M  V30 2 1 1 3
M  V30 3 1 1 4
M  V30 4 1 1 5
M  V30 5 1 2 6
M  V30 6 1 3 7
M  V30 END BOND
M  V30 END CTAB
M  END
>  <Molecule Name>
3,3-dimethylpentane

>  <Molecule Name 2>
3,3-dimethylpentane

>  <Database>
Essential Oil Database

>  <InChI>
InChI=1S/C7H16/c1-5-7(3,4)6-2/h5-6H2,1-4H3

>  <InChI-Key>
AEXMKKGTQYQZCS-UHFFFAOYSA-N

>  <Smiles>
CCC(C)(C)CC

>  <Molecular Formula>
C7H16

$$$$
beta-phenyl-ethyl acetate
Actelion Java MolfileCreator 2.0

  0  0  0  0  0  0              0 V3000
M  V30 BEGIN CTAB
M  V30 COUNTS 12 12 0 0 0
M  V30 BEGIN ATOM
M  V30 1 O 0.0 0.0 0.0 0
M  V30 2 C 1.2853 -0.6721 0.0 0
M  V30 3 O 2.5707 0.2358 0.0 0
M  V30 4 C 1.2028 -2.158 0.0 0
M  V30 5 C 3.8561 -0.4363 0.0 0
M  V30 6 C 5.1415 0.4717 0.0 0
M  V30 7 C 6.4269 -0.2004 0.0 0
M  V30 8 C 7.7123 0.7075 0.0 0
M  V30 9 C 6.3444 -1.6863 0.0 0
M  V30 10 C 8.9977 0.0353 0.0 0
M  V30 11 C 7.6297 -2.3467 0.0 0
M  V30 12 C 8.9151 -1.4504 0.0 0
M  V30 END ATOM
M  V30 BEGIN BOND
M  V30 1 2 1 2
M  V30 2 1 2 3
M  V30 3 1 2 4
M  V30 4 1 3 5
M  V30 5 1 5 6
M  V30 6 1 6 7
M  V30 7 2 7 8
M  V30 8 1 7 9
M  V30 9 1 8 10
M  V30 10 2 9 11
M  V30 11 2 10 12
M  V30 12 1 11 12
M  V30 END BOND
M  V30 END CTAB
M  END
>  <Molecule Name>
beta-phenyl-ethyl acetate

>  <Molecule Name 2>
beta-phenyl-ethyl acetate

>  <Database>
Essential Oil Database

>  <InChI>
InChI=1S/C10H12O2/c1-9(11)12-8-7-10-5-3-2-4-6-10/h2-6H,7-8H2,1H3

>  <InChI-Key>
MDHYEMXUFSJLGV-UHFFFAOYSA-N

>  <Smiles>
CC(OCCc1ccccc1)=O

>  <Molecular Formula>
C10H12O2

$$$$
propylacetate
Actelion Java MolfileCreator 2.0

  0  0  0  0  0  0              0 V3000
M  V30 BEGIN CTAB
M  V30 COUNTS 7 6 0 0 0
M  V30 BEGIN ATOM
M  V30 1 O 0.0 0.0 0.0 0
M  V30 2 C -0.0815 -1.4685 0.0 0
M  V30 3 O -1.5151 -2.1212 0.0 0 CHG=-1
M  V30 4 C 1.1888 -2.1212 0.0 0
M  V30 5 C 2.4592 -1.2354 0.0 0
M  V30 6 C 3.7296 -1.8881 0.0 0
M  V30 7 C 5.0 -1.0023 0.0 0
M  V30 END ATOM
M  V30 BEGIN BOND
M  V30 1 2 1 2
M  V30 2 1 2 3
M  V30 3 1 2 4
M  V30 4 1 4 5
M  V30 5 1 5 6
M  V30 6 1 6 7
M  V30 END BOND
M  V30 END CTAB
M  END
>  <Molecule Name>
propylacetate

>  <Molecule Name 2>
propylacetate

>  <Database>
Essential Oil Database

>  <InChI>
InChI=1S/C5H10O2/c1-2-3-4-5(6)7/h2-4H2,1H3,(H,6,7)/p-1

>  <InChI-Key>
NQPDZGIKBAWPEJ-UHFFFAOYSA-M

>  <Smiles>
CCCCC([O-])=O

>  <Molecular Formula>
C5H9O2

$$$$
biphenyl oxide
Actelion Java MolfileCreator 2.0

  0  0  0  0  0  0              0 V3000
M  V30 BEGIN CTAB
M  V30 COUNTS 13 14 0 0 0
M  V30 BEGIN ATOM
M  V30 1 O 0.0 0.0 0.0 0
M  V30 2 C -0.0892 -1.4531 0.0 0
M  V30 3 C 1.2364 0.8285 0.0 0
M  V30 4 C 1.1472 -2.1797 0.0 0
M  V30 5 C -1.5041 -2.1797 0.0 0
M  V30 6 C 1.1472 2.4601 0.0 0
M  V30 7 C 2.4728 0.1147 0.0 0
M  V30 8 C 1.0579 -3.6328 0.0 0
M  V30 9 C -1.5933 -3.6328 0.0 0
M  V30 10 C 2.3836 3.2886 0.0 0
M  V30 11 C 3.7093 0.956 0.0 0
M  V30 12 C -0.3569 -4.3594 0.0 0
M  V30 13 C 3.6201 2.5748 0.0 0
M  V30 END ATOM
M  V30 BEGIN BOND
M  V30 1 1 1 2
M  V30 2 1 1 3
M  V30 3 2 2 4
M  V30 4 1 2 5
M  V30 5 2 3 6
M  V30 6 1 3 7
M  V30 7 1 4 8
M  V30 8 2 5 9
M  V30 9 1 6 10
M  V30 10 2 7 11
M  V30 11 2 8 12
M  V30 12 2 10 13
M  V30 13 1 9 12
M  V30 14 1 11 13
M  V30 END BOND
M  V30 END CTAB
M  END
>  <Molecule Name>
biphenyl oxide

>  <Molecule Name 2>
biphenyl oxide

>  <Database>
Essential Oil Database

>  <InChI>
InChI=1S/C12H10O/c1-3-7-11(8-4-1)13-12-9-5-2-6-10-12/h1-10H

>  <InChI-Key>
USIUVYZYUHIAEV-UHFFFAOYSA-N

>  <Smiles>
c(cc1)ccc1Oc1ccccc1

>  <Molecular Formula>
C12H10O

$$$$
p-menth-2-ene-1,4-diol
Actelion Java MolfileCreator 2.0

  0  0  0  0  0  0              0 V3000
M  V30 BEGIN CTAB
M  V30 COUNTS 12 12 0 0 0
M  V30 BEGIN ATOM
M  V30 1 O 0.0 0.0 0.0 0
M  V30 2 C 0.6593 1.3798 0.0 0
M  V30 3 C -0.696 2.1735 0.0 0
M  V30 4 C 1.3187 0.1465 0.0 0
M  V30 5 C 1.8682 2.1735 0.0 0
M  V30 6 C -0.7692 3.7365 0.0 0
M  V30 7 C 2.7352 0.1709 0.0 0
M  V30 8 C 0.4884 -1.0379 0.0 0
M  V30 9 C 1.7949 3.7365 0.0 0
M  V30 10 C 0.4395 4.5302 0.0 0
M  V30 11 O 1.3065 5.7269 0.0 0
M  V30 12 C -0.5739 5.7269 0.0 0
M  V30 END ATOM
M  V30 BEGIN BOND
M  V30 1 1 1 2
M  V30 2 1 2 3
M  V30 3 1 2 4
M  V30 4 1 2 5
M  V30 5 2 3 6
M  V30 6 1 4 7
M  V30 7 1 4 8
M  V30 8 1 5 9
M  V30 9 1 6 10
M  V30 10 1 10 11
M  V30 11 1 10 12
M  V30 12 1 9 10
M  V30 END BOND
M  V30 END CTAB
M  END
>  <Molecule Name>
p-menth-2-ene-1,4-diol

>  <Molecule Name 2>
p-menth-2-ene-1,4-diol

>  <Database>
Essential Oil Database

>  <InChI>
InChI=1S/C10H18O2/c1-8(2)10(12)6-4-9(3,11)5-7-10/h4,6,8,11-12H,5,7H2,1-3H3

>  <InChI-Key>
WHOYVNZMAORLBI-UHFFFAOYSA-N

>  <Smiles>
CC(C)C(CC1)(C=CC1(C)O)O

>  <Molecular Formula>
C10H18O2

$$$$
3-methyl-1-(1-methylethyl)-cyclohexane
Actelion Java MolfileCreator 2.0

  0  0  0  0  0  0              0 V3000
M  V30 BEGIN CTAB
M  V30 COUNTS 10 10 0 0 0
M  V30 BEGIN ATOM
M  V30 1 C 0.0 0.0 0.0 0
M  V30 2 C -0.075 1.6002 0.0 0
M  V30 3 C 1.2377 -0.7126 0.0 0
M  V30 4 C -1.3877 -0.7126 0.0 0
M  V30 5 C -1.4627 2.4129 0.0 0
M  V30 6 C 1.1627 2.4129 0.0 0
M  V30 7 C 1.1627 -2.1628 0.0 0
M  V30 8 C -1.4627 -2.1628 0.0 0
M  V30 9 C -0.225 -2.8755 0.0 0
M  V30 10 C 2.4004 -2.8755 0.0 0
M  V30 END ATOM
M  V30 BEGIN BOND
M  V30 1 1 1 2
M  V30 2 1 1 3
M  V30 3 1 1 4
M  V30 4 1 2 5
M  V30 5 1 2 6
M  V30 6 1 3 7
M  V30 7 1 4 8
M  V30 8 1 7 9
M  V30 9 1 7 10
M  V30 10 1 8 9
M  V30 END BOND
M  V30 END CTAB
M  END
>  <Molecule Name>
3-methyl-1-(1-methylethyl)-cyclohexane

>  <Molecule Name 2>
3-methyl-1-(1-methylethyl)-cyclohexane

>  <Database>
Essential Oil Database

>  <InChI>
InChI=1S/C10H20/c1-8(2)10-6-4-5-9(3)7-10/h8-10H,4-7H2,1-3H3

>  <InChI-Key>
QRDCBPPMQOPHOU-UHFFFAOYSA-N

>  <Smiles>
CC(C)C1CC(C)CCC1

>  <Molecular Formula>
C10H20

$$$$
4-methyl-1-(1-methylethyl)-cyclohexane
Actelion Java MolfileCreator 2.0

  0  0  0  0  0  0              0 V3000
M  V30 BEGIN CTAB
M  V30 COUNTS 10 10 0 0 0
M  V30 BEGIN ATOM
M  V30 1 C 0.0 0.0 0.0 0
M  V30 2 C -0.0748 1.5977 0.0 0
M  V30 3 C 1.2357 -0.7114 0.0 0
M  V30 4 C -1.3855 -0.7114 0.0 0
M  V30 5 C -1.4604 2.409 0.0 0
M  V30 6 C 1.1608 2.409 0.0 0
M  V30 7 C 1.1608 -2.1594 0.0 0
M  V30 8 C -1.4604 -2.1594 0.0 0
M  V30 9 C -0.2246 -2.8709 0.0 0
M  V30 10 C -0.2995 -4.3188 0.0 0
M  V30 END ATOM
M  V30 BEGIN BOND
M  V30 1 1 1 2
M  V30 2 1 1 3
M  V30 3 1 1 4
M  V30 4 1 2 5
M  V30 5 1 2 6
M  V30 6 1 3 7
M  V30 7 1 4 8
M  V30 8 1 7 9
M  V30 9 1 9 10
M  V30 10 1 8 9
M  V30 END BOND
M  V30 END CTAB
M  END
>  <Molecule Name>
4-methyl-1-(1-methylethyl)-cyclohexane

>  <Molecule Name 2>
4-methyl-1-(1-methylethyl)-cyclohexane

>  <Database>
Essential Oil Database

>  <InChI>
InChI=1S/C10H20/c1-8(2)10-6-4-9(3)5-7-10/h8-10H,4-7H2,1-3H3

>  <InChI-Key>
CFJYNSNXFXLKNS-UHFFFAOYSA-N

>  <Smiles>
CC(C)C1CCC(C)CC1

>  <Molecular Formula>
C10H20

$$$$
alpha-amyrenone
Actelion Java MolfileCreator 2.0

  0  0  0  0  0  0              0 V3000
M  V30 BEGIN CTAB
M  V30 COUNTS 31 35 0 0 0
M  V30 BEGIN ATOM
M  V30 1 O 0.0 0.0 0.0 0
M  V30 2 C -1.5457 0.0724 0.0 0
M  V30 3 C -2.3306 -1.123 0.0 0
M  V30 4 C -2.3306 1.4128 0.0 0
M  V30 5 C -3.8763 -1.0505 0.0 0 CFG=1
M  V30 6 C -1.0264 -1.5698 0.0 0
M  V30 7 C -2.6687 -2.4997 0.0 0
M  V30 8 C -3.8763 1.4853 0.0 0
M  V30 9 C -4.6612 0.2898 0.0 0 CFG=2
M  V30 10 C -4.6612 -2.2461 0.0 0
M  V30 11 C -6.2069 0.3622 0.0 0 CFG=2
M  V30 12 C -5.4341 1.6302 0.0 0
M  V30 13 C -6.2069 -2.1736 0.0 0
M  V30 14 C -6.9919 -0.8332 0.0 0 CFG=1
M  V30 15 C -6.9919 1.7026 0.0 0
M  V30 16 C -8.5376 -0.7607 0.0 0 CFG=1
M  V30 17 C -6.9073 -2.2219 0.0 0
M  V30 18 C -8.5376 1.7751 0.0 0
M  V30 19 C -9.3225 0.5796 0.0 0
M  V30 20 C -9.3225 -1.9562 0.0 0
M  V30 21 C -7.8372 -1.9562 0.0 0
M  V30 22 C -10.8682 0.652 0.0 0 CFG=1
M  V30 23 C -10.8682 -1.8838 0.0 0
M  V30 24 C -11.6531 -0.5434 0.0 0 CFG=1
M  V30 25 C -11.6531 1.9925 0.0 0 CFG=2
M  V30 26 C -13.1989 -0.4709 0.0 0
M  V30 27 C -12.4381 -1.7389 0.0 0
M  V30 28 C -13.1989 2.0649 0.0 0 CFG=1
M  V30 29 C -10.9648 3.3329 0.0 0
M  V30 30 C -13.9838 0.8694 0.0 0
M  V30 31 C -13.9838 3.4053 0.0 0
M  V30 END ATOM
M  V30 BEGIN BOND
M  V30 1 2 1 2
M  V30 2 1 2 3
M  V30 3 1 2 4
M  V30 4 1 3 5
M  V30 5 1 3 6
M  V30 6 1 3 7
M  V30 7 1 4 8
M  V30 8 1 5 9
M  V30 9 1 5 10 CFG=3
M  V30 10 1 9 11
M  V30 11 1 9 12 CFG=3
M  V30 12 1 10 13
M  V30 13 1 11 14
M  V30 14 1 11 15 CFG=3
M  V30 15 1 14 16
M  V30 16 1 14 17 CFG=3
M  V30 17 1 15 18
M  V30 18 1 16 19
M  V30 19 1 16 20
M  V30 20 1 16 21 CFG=1
M  V30 21 1 22 19 CFG=1
M  V30 22 1 20 23
M  V30 23 1 22 24
M  V30 24 1 22 25
M  V30 25 1 24 26
M  V30 26 1 24 27 CFG=3
M  V30 27 1 25 28
M  V30 28 1 25 29 CFG=3
M  V30 29 1 26 30
M  V30 30 1 28 31 CFG=1
M  V30 31 1 8 9
M  V30 32 1 13 14
M  V30 33 2 18 19
M  V30 34 1 23 24
M  V30 35 1 28 30
M  V30 END BOND
M  V30 BEGIN COLLECTION
M  V30 MDLV30/STERAC1 ATOMS=(9 5 9 11 14 16 22 24 25 28)
M  V30 END COLLECTION
M  V30 END CTAB
M  END
>  <Molecule Name>
alpha-amyrenone

>  <Molecule Name 2>
alpha-amyrenone

>  <Database>
Essential Oil Database

>  <InChI>
InChI=1S/C30H48O/c1-19-11-14-27(5)17-18-29(7)21(25(27)20(19)2)9-10-23-28(6)15-13-24(31)26(3,4)22(28)12-16-30(23,29)8/h9,19-20,22-23,25H,10-18H2,1-8H3/t19-,20+,22+,23-,25+,27-,28+,29-,30-/m1/s1

>  <InChI-Key>
DIFWJJFSELKWGA-IPQOMUISSA-N

>  <Smiles>
C[C@H]1[C@H](C)[C@H]2C3=CC[C@H]([C@@](C)(CC4)[C@@H](CC5)C(C)(C)C4=O)[C@]5(C)[C@]3(C)CC[C@@]2(C)CC1

>  <Molecular Formula>
C30H48O

$$$$
alpha-amyrin
Actelion Java MolfileCreator 2.0

  0  0  0  0  0  0              0 V3000
M  V30 BEGIN CTAB
M  V30 COUNTS 31 35 0 0 0
M  V30 BEGIN ATOM
M  V30 1 O 0.0 0.0 0.0 0
M  V30 2 C -1.5457 0.0724 0.0 0 CFG=2
M  V30 3 C -2.3306 -1.123 0.0 0
M  V30 4 C -2.3306 1.4128 0.0 0
M  V30 5 C -3.8763 -1.0505 0.0 0 CFG=1
M  V30 6 C -1.0264 -1.5698 0.0 0
M  V30 7 C -2.6687 -2.4997 0.0 0
M  V30 8 C -3.8763 1.4853 0.0 0
M  V30 9 C -4.6612 0.2898 0.0 0 CFG=2
M  V30 10 C -4.6612 -2.2461 0.0 0
M  V30 11 C -6.2069 0.3622 0.0 0 CFG=2
M  V30 12 C -5.4341 1.6302 0.0 0
M  V30 13 C -6.2069 -2.1736 0.0 0
M  V30 14 C -6.9919 -0.8332 0.0 0 CFG=1
M  V30 15 C -6.9919 1.7026 0.0 0
M  V30 16 C -8.5376 -0.7607 0.0 0 CFG=1
M  V30 17 C -6.9073 -2.2219 0.0 0
M  V30 18 C -8.5376 1.7751 0.0 0
M  V30 19 C -9.3225 0.5796 0.0 0
M  V30 20 C -9.3225 -1.9562 0.0 0
M  V30 21 C -7.8372 -1.9562 0.0 0
M  V30 22 C -10.8682 0.652 0.0 0 CFG=1
M  V30 23 C -10.8682 -1.8838 0.0 0
M  V30 24 C -11.6531 -0.5434 0.0 0 CFG=1
M  V30 25 C -11.6531 1.9925 0.0 0 CFG=2
M  V30 26 C -13.1989 -0.4709 0.0 0
M  V30 27 C -12.4381 -1.7389 0.0 0
M  V30 28 C -13.1989 2.0649 0.0 0 CFG=1
M  V30 29 C -10.9648 3.3329 0.0 0
M  V30 30 C -13.9838 0.8694 0.0 0
M  V30 31 C -13.9838 3.4053 0.0 0
M  V30 END ATOM
M  V30 BEGIN BOND
M  V30 1 1 2 1 CFG=3
M  V30 2 1 2 3
M  V30 3 1 2 4
M  V30 4 1 3 5
M  V30 5 1 3 6
M  V30 6 1 3 7
M  V30 7 1 4 8
M  V30 8 1 5 9
M  V30 9 1 5 10 CFG=3
M  V30 10 1 9 11
M  V30 11 1 9 12 CFG=3
M  V30 12 1 10 13
M  V30 13 1 11 14
M  V30 14 1 11 15 CFG=3
M  V30 15 1 14 16
M  V30 16 1 14 17 CFG=3
M  V30 17 1 15 18
M  V30 18 1 16 19
M  V30 19 1 16 20
M  V30 20 1 16 21 CFG=1
M  V30 21 1 22 19 CFG=1
M  V30 22 1 20 23
M  V30 23 1 22 24
M  V30 24 1 22 25
M  V30 25 1 24 26
M  V30 26 1 24 27 CFG=3
M  V30 27 1 25 28
M  V30 28 1 25 29 CFG=3
M  V30 29 1 26 30
M  V30 30 1 28 31 CFG=1
M  V30 31 1 8 9
M  V30 32 1 13 14
M  V30 33 2 18 19
M  V30 34 1 23 24
M  V30 35 1 28 30
M  V30 END BOND
M  V30 BEGIN COLLECTION
M  V30 MDLV30/STERAC1 ATOMS=(10 2 5 9 11 14 16 22 24 25 28)
M  V30 END COLLECTION
M  V30 END CTAB
M  END
>  <Molecule Name>
alpha-amyrin

>  <Molecule Name 2>
alpha-amyrin

>  <Database>
Essential Oil Database

>  <InChI>
InChI=1S/C30H50O/c1-19-11-14-27(5)17-18-29(7)21(25(27)20(19)2)9-10-23-28(6)15-13-24(31)26(3,4)22(28)12-16-30(23,29)8/h9,19-20,22-25,31H,10-18H2,1-8H3/t19-,20+,22+,23-,24+,25+,27-,28+,29-,30-/m1/s1

>  <InChI-Key>
FSLPMRQHCOLESF-SFMCKYFRSA-N

>  <Smiles>
C[C@H]1[C@H](C)[C@H]2C3=CC[C@H]([C@@](C)(CC4)[C@@H](CC5)C(C)(C)[C@H]4O)[C@]5(C)[C@]3(C)CC[C@@]2(C)CC1

>  <Molecular Formula>
C30H50O

$$$$
beta-amyrin
Actelion Java MolfileCreator 2.0

  0  0  0  0  0  0              0 V3000
M  V30 BEGIN CTAB
M  V30 COUNTS 31 35 0 0 0
M  V30 BEGIN ATOM
M  V30 1 O 0.0 0.0 0.0 0
M  V30 2 C -1.5449 0.0724 0.0 0 CFG=2
M  V30 3 C -2.3294 -1.1224 0.0 0
M  V30 4 C -2.3294 1.4121 0.0 0
M  V30 5 C -3.8744 -1.05 0.0 0 CFG=1
M  V30 6 C -1.0259 -1.569 0.0 0
M  V30 7 C -2.6674 -2.4984 0.0 0
M  V30 8 C -3.8744 1.4845 0.0 0
M  V30 9 C -4.6589 0.2896 0.0 0 CFG=2
M  V30 10 C -4.6589 -2.2449 0.0 0
M  V30 11 C -6.2038 0.362 0.0 0 CFG=2
M  V30 12 C -5.4314 1.6294 0.0 0
M  V30 13 C -6.2038 -2.1725 0.0 0
M  V30 14 C -6.9884 -0.8328 0.0 0 CFG=1
M  V30 15 C -6.9884 1.7018 0.0 0
M  V30 16 C -8.5333 -0.7603 0.0 0 CFG=1
M  V30 17 C -6.9039 -2.2208 0.0 0
M  V30 18 C -8.5333 1.7742 0.0 0
M  V30 19 C -9.3179 0.5793 0.0 0
M  V30 20 C -9.3179 -1.9553 0.0 0
M  V30 21 C -7.8333 -1.9553 0.0 0
M  V30 22 C -10.8628 0.6517 0.0 0 CFG=1
M  V30 23 C -10.8628 -1.8828 0.0 0
M  V30 24 C -11.6473 -0.5431 0.0 0 CFG=1
M  V30 25 C -11.6473 1.9915 0.0 0
M  V30 26 C -13.1923 -0.4707 0.0 0
M  V30 27 C -12.4319 -1.738 0.0 0
M  V30 28 C -13.1923 2.0639 0.0 0
M  V30 29 C -13.9647 0.869 0.0 0
M  V30 30 C -14.6406 2.6553 0.0 0
M  V30 31 C -12.9991 3.5847 0.0 0
M  V30 END ATOM
M  V30 BEGIN BOND
M  V30 1 1 2 1 CFG=3
M  V30 2 1 2 3
M  V30 3 1 2 4
M  V30 4 1 3 5
M  V30 5 1 3 6
M  V30 6 1 3 7
M  V30 7 1 4 8
M  V30 8 1 5 9
M  V30 9 1 5 10 CFG=3
M  V30 10 1 9 11
M  V30 11 1 9 12 CFG=3
M  V30 12 1 10 13
M  V30 13 1 11 14
M  V30 14 1 11 15 CFG=3
M  V30 15 1 14 16
M  V30 16 1 14 17 CFG=3
M  V30 17 1 15 18
M  V30 18 1 16 19
M  V30 19 1 16 20
M  V30 20 1 16 21 CFG=1
M  V30 21 1 19 22
M  V30 22 1 20 23
M  V30 23 1 22 24
M  V30 24 1 22 25 CFG=1
M  V30 25 1 24 26
M  V30 26 1 24 27 CFG=3
M  V30 27 1 25 28
M  V30 28 1 26 29
M  V30 29 1 28 30
M  V30 30 1 28 31
M  V30 31 1 8 9
M  V30 32 1 13 14
M  V30 33 2 18 19
M  V30 34 1 23 24
M  V30 35 1 28 29
M  V30 END BOND
M  V30 BEGIN COLLECTION
M  V30 MDLV30/STERAC1 ATOMS=(8 2 5 9 11 14 16 22 24)
M  V30 END COLLECTION
M  V30 END CTAB
M  END
>  <Molecule Name>
beta-amyrin

>  <Molecule Name 2>
beta-amyrin

>  <Database>
Essential Oil Database

>  <InChI>
InChI=1S/C30H50O/c1-25(2)15-16-27(5)17-18-29(7)20(21(27)19-25)9-10-23-28(6)13-12-24(31)26(3,4)22(28)11-14-30(23,29)8/h9,21-24,31H,10-19H2,1-8H3/t21-,22-,23+,24-,27+,28-,29+,30+/m0/s1

>  <InChI-Key>
JFSHUTJDVKUMTJ-QHPUVITPSA-N

>  <Smiles>
CC1(C)C[C@H]2C3=CC[C@H]([C@@](C)(CC4)[C@@H](CC5)C(C)(C)[C@H]4O)[C@]5(C)[C@]3(C)CC[C@@]2(C)CC1

>  <Molecular Formula>
C30H50O

$$$$
friedelan-3-one
Actelion Java MolfileCreator 2.0

  0  0  0  0  0  0              0 V3000
M  V30 BEGIN CTAB
M  V30 COUNTS 31 35 0 0 0
M  V30 BEGIN ATOM
M  V30 1 O 0.0 0.0 0.0 0
M  V30 2 C -1.5412 0.0722 0.0 0
M  V30 3 C -2.3238 1.4087 0.0 0 CFG=1
M  V30 4 C -2.3238 -1.1197 0.0 0
M  V30 5 C -3.865 1.481 0.0 0 CFG=2
M  V30 6 C -1.6375 2.7452 0.0 0
M  V30 7 C -3.865 -1.0475 0.0 0
M  V30 8 C -4.6356 0.2889 0.0 0 CFG=1
M  V30 9 C -4.6356 2.8175 0.0 0
M  V30 10 C -3.1667 2.8175 0.0 0
M  V30 11 C -6.1769 0.3612 0.0 0 CFG=1
M  V30 12 C -6.1769 2.8897 0.0 0
M  V30 13 C -6.9595 1.6977 0.0 0 CFG=2
M  V30 14 C -6.9595 -0.8308 0.0 0
M  V30 15 C -5.4905 -0.8308 0.0 0
M  V30 16 C -8.5007 1.7699 0.0 0 CFG=2
M  V30 17 C -8.5007 -0.7585 0.0 0
M  V30 18 C -9.2713 0.5779 0.0 0 CFG=1
M  V30 19 C -9.2713 3.1065 0.0 0
M  V30 20 C -7.8024 3.1065 0.0 0
M  V30 21 C -10.8125 0.6502 0.0 0 CFG=1
M  V30 22 C -10.054 -0.614 0.0 0
M  V30 23 C -10.8125 3.1787 0.0 0
M  V30 24 C -11.5952 1.9867 0.0 0 CFG=1
M  V30 25 C -11.5952 -0.5418 0.0 0
M  V30 26 C -13.1364 2.0589 0.0 0
M  V30 27 C -12.3778 3.3232 0.0 0
M  V30 28 C -13.1364 -0.4695 0.0 0
M  V30 29 C -13.919 0.8669 0.0 0
M  V30 30 C -12.9437 -1.8422 0.0 0
M  V30 31 C -14.5813 -0.915 0.0 0
M  V30 END ATOM
M  V30 BEGIN BOND
M  V30 1 2 1 2
M  V30 2 1 2 3
M  V30 3 1 2 4
M  V30 4 1 3 5
M  V30 5 1 3 6 CFG=1
M  V30 6 1 4 7
M  V30 7 1 5 8
M  V30 8 1 5 9
M  V30 9 1 5 10 CFG=1
M  V30 10 1 8 11
M  V30 11 1 9 12
M  V30 12 1 11 13
M  V30 13 1 11 14
M  V30 14 1 11 15 CFG=1
M  V30 15 1 13 16
M  V30 16 1 14 17
M  V30 17 1 16 18
M  V30 18 1 16 19
M  V30 19 1 16 20 CFG=1
M  V30 20 1 18 21
M  V30 21 1 18 22 CFG=3
M  V30 22 1 19 23
M  V30 23 1 21 24
M  V30 24 1 21 25 CFG=3
M  V30 25 1 24 26
M  V30 26 1 24 27 CFG=1
M  V30 27 1 25 28
M  V30 28 1 26 29
M  V30 29 1 28 30
M  V30 30 1 28 31
M  V30 31 1 8 7 CFG=1
M  V30 32 1 13 12 CFG=1
M  V30 33 1 17 18
M  V30 34 1 23 24
M  V30 35 1 28 29
M  V30 END BOND
M  V30 BEGIN COLLECTION
M  V30 MDLV30/STERAC1 ATOMS=(9 3 5 8 11 13 16 18 21 24)
M  V30 END COLLECTION
M  V30 END CTAB
M  END
>  <Molecule Name>
friedelan-3-one

>  <Molecule Name 2>
friedelan-3-one

>  <Database>
Essential Oil Database

>  <InChI>
InChI=1S/C30H50O/c1-20-21(31)9-10-22-27(20,5)12-11-23-28(22,6)16-18-30(8)24-19-25(2,3)13-14-26(24,4)15-17-29(23,30)7/h20,22-24H,9-19H2,1-8H3/t20-,22+,23-,24+,26+,27+,28-,29+,30-/m0/s1

>  <InChI-Key>
OFMXGFHWLZPCFL-SVRPQWSVSA-N

>  <Smiles>
C[C@H]([C@@](C)(CC1)[C@@H](CC2)[C@](C)(CC3)[C@H]1[C@]1(C)[C@]3(C)[C@H](CC(C)(C)CC3)[C@@]3(C)CC1)C2=O

>  <Molecular Formula>
C30H50O

$$$$
sativene
Actelion Java MolfileCreator 2.0

  0  0  0  0  0  0              0 V3000
M  V30 BEGIN CTAB
M  V30 COUNTS 15 17 0 0 0
M  V30 BEGIN ATOM
M  V30 1 C 0.0 0.0 0.0 0
M  V30 2 C 1.2639 0.5939 0.0 0
M  V30 3 C -0.533 -1.2183 0.0 0 CFG=2
M  V30 4 C -1.2639 0.9137 0.0 0 CFG=2
M  V30 5 C -1.9645 -0.6396 0.0 0 CFG=1
M  V30 6 C 0.67 -0.3807 0.0 0
M  V30 7 C -1.5228 -2.2081 0.0 0
M  V30 8 C -2.1929 1.1269 0.0 0
M  V30 9 C -3.2132 0.8071 0.0 0
M  V30 10 C -3.4417 -0.5939 0.0 0
M  V30 11 C 0.4264 1.2183 0.0 0
M  V30 12 C -0.8832 1.9797 0.0 0 CFG=1
M  V30 13 C -0.9594 3.5026 0.0 0
M  V30 14 C -2.2691 4.3706 0.0 0
M  V30 15 C 0.1979 4.3402 0.0 0
M  V30 END ATOM
M  V30 BEGIN BOND
M  V30 1 2 1 2
M  V30 2 1 1 3
M  V30 3 1 1 4
M  V30 4 1 3 5
M  V30 5 1 3 6
M  V30 6 1 3 7 CFG=3
M  V30 7 1 4 8
M  V30 8 1 4 9 CFG=3
M  V30 9 1 5 10 CFG=3
M  V30 10 1 6 11
M  V30 11 1 8 12
M  V30 12 1 12 13 CFG=3
M  V30 13 1 13 14
M  V30 14 1 13 15
M  V30 15 1 5 8
M  V30 16 1 9 10
M  V30 17 1 11 12
M  V30 END BOND
M  V30 BEGIN COLLECTION
M  V30 MDLV30/STERAC1 ATOMS=(4 3 4 5 12)
M  V30 END COLLECTION
M  V30 END CTAB
M  END
>  <Molecule Name>
sativene

>  <Molecule Name 2>
sativene

>  <Database>
Essential Oil Database

>  <InChI>
InChI=1S/C15H24/c1-9(2)11-7-8-15(4)10(3)12-5-6-13(15)14(11)12/h9,11-14H,3,5-8H2,1-2,4H3/t11-,12+,13+,14?,15+/m0/s1

>  <InChI-Key>
VOBBUADSYROGAT-XUPBQHKHSA-N

>  <Smiles>
CC(C)[C@H](CC[C@@]1(C)[C@@H]2CC3)C2[C@H]3C1=C

>  <Molecular Formula>
C15H24

$$$$
1-(2,4,6-trimethylphenyl)-buta-1,3-diene
Actelion Java MolfileCreator 2.0

  0  0  0  0  0  0              0 V3000
M  V30 BEGIN CTAB
M  V30 COUNTS 13 13 0 0 0
M  V30 BEGIN ATOM
M  V30 1 C 0.0 0.0 0.0 0
M  V30 2 C 1.2317 -0.7092 0.0 0
M  V30 3 C -1.381 -0.7092 0.0 0
M  V30 4 C -0.0746 1.5925 0.0 0
M  V30 5 C 1.1571 -2.1524 0.0 0
M  V30 6 C 2.4635 0.0995 0.0 0
M  V30 7 C -1.4557 -2.1524 0.0 0
M  V30 8 C -2.7621 0.0995 0.0 0
M  V30 9 C 1.1571 2.4013 0.0 0
M  V30 10 C -0.2239 -2.8616 0.0 0
M  V30 11 C 1.0824 3.9939 0.0 0
M  V30 12 C -0.2986 -4.3049 0.0 0
M  V30 13 C 2.3142 4.8151 0.0 0
M  V30 END ATOM
M  V30 BEGIN BOND
M  V30 1 2 1 2
M  V30 2 1 1 3
M  V30 3 1 1 4
M  V30 4 1 2 5
M  V30 5 1 2 6
M  V30 6 2 3 7
M  V30 7 1 3 8
M  V30 8 2 4 9
M  V30 9 2 5 10
M  V30 10 1 9 11
M  V30 11 1 10 12
M  V30 12 2 11 13
M  V30 13 1 7 10
M  V30 END BOND
M  V30 END CTAB
M  END
>  <Molecule Name>
1-(2,4,6-trimethylphenyl)-buta-1,3-diene

>  <Molecule Name 2>
1-(2,4,6-trimethylphenyl)-buta-1,3-diene

>  <Database>
Essential Oil Database

>  <InChI>
InChI=1S/C13H16/c1-5-6-7-13-11(3)8-10(2)9-12(13)4/h5-9H,1H2,2-4H3/b7-6+

>  <InChI-Key>
YOPHSFAXJIMOIN-VOTSOKGWSA-N

>  <Smiles>
Cc1cc(C)c(/C=C/C=C)c(C)c1

>  <Molecular Formula>
C13H16

$$$$
1-(2-butylidene)-2,6,6-trimethylcyclohexa-2,4-diene
Actelion Java MolfileCreator 2.0

  0  0  0  0  0  0              0 V3000
M  V30 BEGIN CTAB
M  V30 COUNTS 13 13 0 0 0
M  V30 BEGIN ATOM
M  V30 1 C 0.0 0.0 0.0 0
M  V30 2 C -0.0738 -1.427 0.0 0
M  V30 3 C 1.2178 0.7873 0.0 0
M  V30 4 C -1.3655 0.7873 0.0 0
M  V30 5 C -1.4393 -2.1282 0.0 0
M  V30 6 C 1.144 -2.1282 0.0 0
M  V30 7 C 2.4357 0.0861 0.0 0
M  V30 8 C 1.144 2.3619 0.0 0
M  V30 9 C -2.731 0.0861 0.0 0
M  V30 10 C -2.1528 2.1774 0.0 0
M  V30 11 C -0.7012 2.1774 0.0 0
M  V30 12 C -2.8048 -1.3286 0.0 0
M  V30 13 C 3.6536 0.8734 0.0 0
M  V30 END ATOM
M  V30 BEGIN BOND
M  V30 1 1 1 2
M  V30 2 2 1 3
M  V30 3 1 1 4
M  V30 4 2 2 5
M  V30 5 1 2 6
M  V30 6 1 3 7
M  V30 7 1 3 8
M  V30 8 1 4 9
M  V30 9 1 4 10
M  V30 10 1 4 11
M  V30 11 1 5 12
M  V30 12 1 7 13
M  V30 13 2 9 12
M  V30 END BOND
M  V30 END CTAB
M  END
>  <Molecule Name>
1-(2-butylidene)-2,6,6-trimethylcyclohexa-2,4-diene

>  <Molecule Name 2>
1-(2-butylidene)-2,6,6-trimethylcyclohexa-2,4-diene

>  <Database>
Essential Oil Database

>  <InChI>
InChI=1S/C13H20/c1-6-10(2)12-11(3)8-7-9-13(12,4)5/h7-9H,6H2,1-5H3/b12-10+

>  <InChI-Key>
SOTOAYBMCZIIJI-ZRDIBKRKSA-N

>  <Smiles>
CC/C(\C)=C1\C(C)=CC=CC\1(C)C

>  <Molecular Formula>
C13H20

$$$$
1,3-dimethylnaphthalene
Actelion Java MolfileCreator 2.0

  0  0  0  0  0  0              0 V3000
M  V30 BEGIN CTAB
M  V30 COUNTS 12 13 0 0 0
M  V30 BEGIN ATOM
M  V30 1 C 0.0 0.0 0.0 0
M  V30 2 C -0.0732 1.5632 0.0 0
M  V30 3 C 1.209 -0.7083 0.0 0
M  V30 4 C -1.3556 -0.7083 0.0 0
M  V30 5 C 1.1357 2.3692 0.0 0
M  V30 6 C -1.4288 2.3692 0.0 0
M  V30 7 C 2.4181 0.0854 0.0 0
M  V30 8 C 1.1357 -2.125 0.0 0
M  V30 9 C -2.7112 0.0854 0.0 0
M  V30 10 C 2.3448 1.6609 0.0 0
M  V30 11 C -2.7844 1.6609 0.0 0
M  V30 12 C 3.5538 2.4669 0.0 0
M  V30 END ATOM
M  V30 BEGIN BOND
M  V30 1 1 1 2
M  V30 2 1 1 3
M  V30 3 2 1 4
M  V30 4 1 2 5
M  V30 5 2 2 6
M  V30 6 2 3 7
M  V30 7 1 3 8
M  V30 8 1 4 9
M  V30 9 2 5 10
M  V30 10 1 6 11
M  V30 11 1 10 12
M  V30 12 1 7 10
M  V30 13 2 9 11
M  V30 END BOND
M  V30 END CTAB
M  END
>  <Molecule Name>
1,3-dimethylnaphthalene

>  <Molecule Name 2>
1,3-dimethylnaphthalene

>  <Database>
Essential Oil Database

>  <InChI>
InChI=1S/C12H12/c1-9-7-10(2)12-6-4-3-5-11(12)8-9/h3-8H,1-2H3

>  <InChI-Key>
QHJMFSMPSZREIF-UHFFFAOYSA-N

>  <Smiles>
Cc1cc2ccccc2c(C)c1

>  <Molecular Formula>
C12H12

$$$$
1-(4-methylphenyl)-ethanol
Actelion Java MolfileCreator 2.0

  0  0  0  0  0  0              0 V3000
M  V30 BEGIN CTAB
M  V30 COUNTS 10 10 0 0 0
M  V30 BEGIN ATOM
M  V30 1 O 0.0 0.0 0.0 0
M  V30 2 C -1.4029 -0.6609 0.0 0 CFG=2
M  V30 3 C -1.4725 -2.1218 0.0 0
M  V30 4 C -2.8059 0.1971 0.0 0
M  V30 5 C -0.2087 -2.7827 0.0 0
M  V30 6 C -2.8755 -2.7827 0.0 0
M  V30 7 C -0.2782 -4.2437 0.0 0
M  V30 8 C -2.9451 -4.2437 0.0 0
M  V30 9 C -1.6812 -4.9046 0.0 0
M  V30 10 C -1.7508 -6.3655 0.0 0
M  V30 END ATOM
M  V30 BEGIN BOND
M  V30 1 1 2 1 CFG=3
M  V30 2 1 2 3
M  V30 3 1 2 4
M  V30 4 2 3 5
M  V30 5 1 3 6
M  V30 6 1 5 7
M  V30 7 2 6 8
M  V30 8 2 7 9
M  V30 9 1 9 10
M  V30 10 1 8 9
M  V30 END BOND
M  V30 BEGIN COLLECTION
M  V30 MDLV30/STERAC1 ATOMS=(1 2)
M  V30 END COLLECTION
M  V30 END CTAB
M  END
>  <Molecule Name>
1-(4-methylphenyl)-ethanol

>  <Molecule Name 2>
1-(4-methylphenyl)-ethanol

>  <Database>
Essential Oil Database

>  <InChI>
InChI=1S/C9H12O/c1-7-3-5-9(6-4-7)8(2)10/h3-6,8,10H,1-2H3/t8-/m0/s1

>  <InChI-Key>
JESIHYIJKKUWIS-QMMMGPOBSA-N

>  <Smiles>
CC(c1ccc(C)cc1)O

>  <Molecular Formula>
C9H12O

$$$$
2,3,6-trimethylnaphthalene
Actelion Java MolfileCreator 2.0

  0  0  0  0  0  0              0 V3000
M  V30 BEGIN CTAB
M  V30 COUNTS 13 14 0 0 0
M  V30 BEGIN ATOM
M  V30 1 C 0.0 0.0 0.0 0
M  V30 2 C -0.0684 -1.437 0.0 0
M  V30 3 C 1.2432 0.8554 0.0 0
M  V30 4 C -1.38 0.8554 0.0 0
M  V30 5 C 1.1747 -2.0986 0.0 0
M  V30 6 C -1.4485 -2.0986 0.0 0
M  V30 7 C 2.4864 0.1938 0.0 0
M  V30 8 C -2.7601 0.1938 0.0 0
M  V30 9 C 2.4179 -1.2432 0.0 0
M  V30 10 C -2.8285 -1.2432 0.0 0
M  V30 11 C 3.7296 1.0493 0.0 0
M  V30 12 C -4.1402 1.0493 0.0 0
M  V30 13 C 3.6611 -1.9047 0.0 0
M  V30 END ATOM
M  V30 BEGIN BOND
M  V30 1 1 1 2
M  V30 2 1 1 3
M  V30 3 2 1 4
M  V30 4 1 2 5
M  V30 5 2 2 6
M  V30 6 2 3 7
M  V30 7 1 4 8
M  V30 8 2 5 9
M  V30 9 1 6 10
M  V30 10 1 7 11
M  V30 11 1 8 12
M  V30 12 1 9 13
M  V30 13 1 7 9
M  V30 14 2 8 10
M  V30 END BOND
M  V30 END CTAB
M  END
>  <Molecule Name>
2,3,6-trimethylnaphthalene

>  <Molecule Name 2>
2,3,6-trimethylnaphthalene

>  <Database>
Essential Oil Database

>  <InChI>
InChI=1S/C13H14/c1-9-4-5-12-7-10(2)11(3)8-13(12)6-9/h4-8H,1-3H3

>  <InChI-Key>
UNBZRJCHIWTUHB-UHFFFAOYSA-N

>  <Smiles>
Cc1ccc(cc(C)c(C)c2)c2c1

>  <Molecular Formula>
C13H14

$$$$
2,4,6-octatrienal
Actelion Java MolfileCreator 2.0

  0  0  0  0  0  0              0 V3000
M  V30 BEGIN CTAB
M  V30 COUNTS 9 8 0 0 0
M  V30 BEGIN ATOM
M  V30 1 O 0.0 0.0 0.0 0
M  V30 2 C 0.7153 -1.2211 0.0 0
M  V30 3 C -0.0863 -2.4422 0.0 0
M  V30 4 C -1.6651 -2.3682 0.0 0
M  V30 5 C -2.4668 -3.5893 0.0 0
M  V30 6 C -4.0456 -3.5153 0.0 0
M  V30 7 C -4.8474 -4.7364 0.0 0
M  V30 8 C -6.4262 -4.6624 0.0 0
M  V30 9 C -7.2279 -5.8835 0.0 0
M  V30 END ATOM
M  V30 BEGIN BOND
M  V30 1 2 1 2
M  V30 2 1 2 3
M  V30 3 2 3 4
M  V30 4 1 4 5
M  V30 5 2 5 6
M  V30 6 1 6 7
M  V30 7 2 7 8
M  V30 8 1 8 9
M  V30 END BOND
M  V30 END CTAB
M  END
>  <Molecule Name>
2,4,6-octatrienal

>  <Molecule Name 2>
2,4,6-octatrienal

>  <Database>
Essential Oil Database

>  <InChI>
InChI=1S/C8H10O/c1-2-3-4-5-6-7-8-9/h2-8H,1H3/b3-2+,5-4+,7-6+

>  <InChI-Key>
ZUZGMJKUENNLQL-ICDJNDDTSA-N

>  <Smiles>
C/C=C/C=C/C=C/C=O

>  <Molecular Formula>
C8H10O

$$$$
2,4-dimethylbenzaldehyde
Actelion Java MolfileCreator 2.0

  0  0  0  0  0  0              0 V3000
M  V30 BEGIN CTAB
M  V30 COUNTS 10 10 0 0 0
M  V30 BEGIN ATOM
M  V30 1 O 0.0 0.0 0.0 0
M  V30 2 C 1.285 -0.672 0.0 0
M  V30 3 C 1.2143 -2.1575 0.0 0
M  V30 4 C 2.4994 -2.8295 0.0 0
M  V30 5 C -0.2122 -2.8295 0.0 0
M  V30 6 C 2.4287 -4.315 0.0 0
M  V30 7 C 3.7845 -1.9689 0.0 0
M  V30 8 C -0.2829 -4.315 0.0 0
M  V30 9 C 1.0021 -4.9871 0.0 0
M  V30 10 C 0.9314 -6.4726 0.0 0
M  V30 END ATOM
M  V30 BEGIN BOND
M  V30 1 2 1 2
M  V30 2 1 2 3
M  V30 3 2 3 4
M  V30 4 1 3 5
M  V30 5 1 4 6
M  V30 6 1 4 7
M  V30 7 2 5 8
M  V30 8 2 6 9
M  V30 9 1 9 10
M  V30 10 1 8 9
M  V30 END BOND
M  V30 END CTAB
M  END
>  <Molecule Name>
2,4-dimethylbenzaldehyde

>  <Molecule Name 2>
2,4-dimethylbenzaldehyde

>  <Database>
Essential Oil Database

>  <InChI>
InChI=1S/C9H10O/c1-7-3-4-9(6-10)8(2)5-7/h3-6H,1-2H3

>  <InChI-Key>
GISVICWQYMUPJF-UHFFFAOYSA-N

>  <Smiles>
Cc1cc(C)c(C=O)cc1

>  <Molecular Formula>
C9H10O

$$$$
2,4-dimethylphenol
Actelion Java MolfileCreator 2.0

  0  0  0  0  0  0              0 V3000
M  V30 BEGIN CTAB
M  V30 COUNTS 9 9 0 0 0
M  V30 BEGIN ATOM
M  V30 1 O 0.0 0.0 0.0 0
M  V30 2 C -0.0704 -1.4793 0.0 0
M  V30 3 C 1.2093 -2.1485 0.0 0
M  V30 4 C -1.491 -2.1485 0.0 0
M  V30 5 C 1.1388 -3.6279 0.0 0
M  V30 6 C 2.489 -1.2797 0.0 0
M  V30 7 C -1.5615 -3.6279 0.0 0
M  V30 8 C -0.2817 -4.2971 0.0 0
M  V30 9 C -0.3522 -5.7764 0.0 0
M  V30 END ATOM
M  V30 BEGIN BOND
M  V30 1 1 1 2
M  V30 2 2 2 3
M  V30 3 1 2 4
M  V30 4 1 3 5
M  V30 5 1 3 6
M  V30 6 2 4 7
M  V30 7 2 5 8
M  V30 8 1 8 9
M  V30 9 1 7 8
M  V30 END BOND
M  V30 END CTAB
M  END
>  <Molecule Name>
2,4-dimethylphenol

>  <Molecule Name 2>
2,4-dimethylphenol

>  <Database>
Essential Oil Database

>  <InChI>
InChI=1S/C8H10O/c1-6-3-4-8(9)7(2)5-6/h3-5,9H,1-2H3

>  <InChI-Key>
KUFFULVDNCHOFZ-UHFFFAOYSA-N

>  <Smiles>
Cc(cc1)cc(C)c1O

>  <Molecular Formula>
C8H10O

$$$$
2,5-furandicarboxaldehyde
Actelion Java MolfileCreator 2.0

  0  0  0  0  0  0              0 V3000
M  V30 BEGIN CTAB
M  V30 COUNTS 9 9 0 0 0
M  V30 BEGIN ATOM
M  V30 1 O 0.0 0.0 0.0 0
M  V30 2 C 0.5407 1.3754 0.0 0
M  V30 3 C -0.3526 2.598 0.0 0
M  V30 4 O 0.0352 4.0322 0.0 0
M  V30 5 C -1.8574 2.6685 0.0 0
M  V30 6 C -1.1873 4.9256 0.0 0
M  V30 7 C -2.3864 4.1027 0.0 0
M  V30 8 C -1.2578 6.4303 0.0 0
M  V30 9 O -2.5627 7.1944 0.0 0
M  V30 END ATOM
M  V30 BEGIN BOND
M  V30 1 2 1 2
M  V30 2 1 2 3
M  V30 3 1 3 4
M  V30 4 2 3 5
M  V30 5 1 4 6
M  V30 6 1 5 7
M  V30 7 1 6 8
M  V30 8 2 8 9
M  V30 9 2 6 7
M  V30 END BOND
M  V30 END CTAB
M  END
>  <Molecule Name>
2,5-furandicarboxaldehyde

>  <Molecule Name 2>
2,5-furandicarboxaldehyde

>  <Database>
Essential Oil Database

>  <InChI>
InChI=1S/C6H4O3/c7-3-5-1-2-6(4-8)9-5/h1-4H

>  <InChI-Key>
PXJJKVNIMAZHCB-UHFFFAOYSA-N

>  <Smiles>
O=Cc1ccc(C=O)[o]1

>  <Molecular Formula>
C6H4O3

$$$$
2,6-dimethylphenol
Actelion Java MolfileCreator 2.0

  0  0  0  0  0  0              0 V3000
M  V30 BEGIN CTAB
M  V30 COUNTS 9 9 0 0 0
M  V30 BEGIN ATOM
M  V30 1 O 0.0 0.0 0.0 0
M  V30 2 C -0.0694 -1.4594 0.0 0
M  V30 3 C 1.193 -2.1196 0.0 0
M  V30 4 C -1.471 -2.1196 0.0 0
M  V30 5 C 1.1235 -3.579 0.0 0
M  V30 6 C 2.4555 -1.2625 0.0 0
M  V30 7 C -1.5405 -3.579 0.0 0
M  V30 8 C -2.8725 -1.2625 0.0 0
M  V30 9 C -0.2779 -4.2392 0.0 0
M  V30 END ATOM
M  V30 BEGIN BOND
M  V30 1 1 1 2
M  V30 2 2 2 3
M  V30 3 1 2 4
M  V30 4 1 3 5
M  V30 5 1 3 6
M  V30 6 2 4 7
M  V30 7 1 4 8
M  V30 8 2 5 9
M  V30 9 1 7 9
M  V30 END BOND
M  V30 END CTAB
M  END
>  <Molecule Name>
2,6-dimethylphenol

>  <Molecule Name 2>
2,6-dimethylphenol

>  <Database>
Essential Oil Database

>  <InChI>
InChI=1S/C8H10O/c1-6-4-3-5-7(2)8(6)9/h3-5,9H,1-2H3

>  <InChI-Key>
NXXYKOUNUYWIHA-UHFFFAOYSA-N

>  <Smiles>
Cc1cccc(C)c1O

>  <Molecular Formula>
C8H10O

$$$$
2-phenyldodecane
Actelion Java MolfileCreator 2.0

  0  0  0  0  0  0              0 V3000
M  V30 BEGIN CTAB
M  V30 COUNTS 18 18 0 0 0
M  V30 BEGIN ATOM
M  V30 1 C 0.0 0.0 0.0 0
M  V30 2 C -1.3894 -0.726 0.0 0
M  V30 3 C -0.0751 1.6022 0.0 0
M  V30 4 C 1.2392 -0.726 0.0 0 CFG=2
M  V30 5 C -2.7788 0.0751 0.0 0
M  V30 6 C -1.4645 2.4158 0.0 0
M  V30 7 C 2.4784 0.0751 0.0 0
M  V30 8 C 1.1641 -2.178 0.0 0
M  V30 9 C -2.8539 1.6773 0.0 0
M  V30 10 C 3.7176 -0.6509 0.0 0
M  V30 11 C 4.9568 0.1502 0.0 0
M  V30 12 C 6.1961 -0.5632 0.0 0
M  V30 13 C 7.4353 0.2378 0.0 0
M  V30 14 C 8.6745 -0.4881 0.0 0
M  V30 15 C 9.9137 0.3129 0.0 0
M  V30 16 C 11.1529 -0.413 0.0 0
M  V30 17 C 12.3922 0.388 0.0 0
M  V30 18 C 13.6314 -0.3254 0.0 0
M  V30 END ATOM
M  V30 BEGIN BOND
M  V30 1 2 1 2
M  V30 2 1 1 3
M  V30 3 1 1 4
M  V30 4 1 2 5
M  V30 5 2 3 6
M  V30 6 1 4 7
M  V30 7 1 4 8 CFG=3
M  V30 8 2 5 9
M  V30 9 1 7 10
M  V30 10 1 10 11
M  V30 11 1 11 12
M  V30 12 1 12 13
M  V30 13 1 13 14
M  V30 14 1 14 15
M  V30 15 1 15 16
M  V30 16 1 16 17
M  V30 17 1 17 18
M  V30 18 1 6 9
M  V30 END BOND
M  V30 BEGIN COLLECTION
M  V30 MDLV30/STERAC1 ATOMS=(1 4)
M  V30 END COLLECTION
M  V30 END CTAB
M  END
>  <Molecule Name>
2-phenyldodecane

>  <Molecule Name 2>
2-phenyldodecane

>  <Database>
Essential Oil Database

>  <InChI>
InChI=1S/C18H30/c1-3-4-5-6-7-8-9-11-14-17(2)18-15-12-10-13-16-18/h10,12-13,15-17H,3-9,11,14H2,1-2H3/t17-/m0/s1

>  <InChI-Key>
VRPRIAVYSREHAN-KRWDZBQOSA-N

>  <Smiles>
CCCCCCCCCCC(C)c1ccccc1

>  <Molecular Formula>
C18H30

$$$$
2-phenylethylformate
Actelion Java MolfileCreator 2.0

  0  0  0  0  0  0              0 V3000
M  V30 BEGIN CTAB
M  V30 COUNTS 11 11 0 0 0
M  V30 BEGIN ATOM
M  V30 1 O 0.0 0.0 0.0 0
M  V30 2 C 1.288 -0.6853 0.0 0
M  V30 3 O 2.576 0.189 0.0 0 CHG=-1
M  V30 4 C 1.2171 -2.1743 0.0 0
M  V30 5 C 2.5051 -2.8478 0.0 0
M  V30 6 C 2.4342 -4.3367 0.0 0
M  V30 7 C 3.7223 -5.0103 0.0 0
M  V30 8 C 1.0044 -5.0103 0.0 0
M  V30 9 C 3.6514 -6.4992 0.0 0
M  V30 10 C 0.9335 -6.4992 0.0 0
M  V30 11 C 2.2215 -7.1728 0.0 0
M  V30 END ATOM
M  V30 BEGIN BOND
M  V30 1 2 1 2
M  V30 2 1 2 3
M  V30 3 1 2 4
M  V30 4 1 4 5
M  V30 5 1 5 6
M  V30 6 2 6 7
M  V30 7 1 6 8
M  V30 8 1 7 9
M  V30 9 2 8 10
M  V30 10 2 9 11
M  V30 11 1 10 11
M  V30 END BOND
M  V30 END CTAB
M  END
>  <Molecule Name>
2-phenylethylformate

>  <Molecule Name 2>
2-phenylethylformate

>  <Database>
Essential Oil Database

>  <InChI>
InChI=1S/C9H10O2/c10-9(11)7-6-8-4-2-1-3-5-8/h1-5H,6-7H2,(H,10,11)/p-1

>  <InChI-Key>
XMIIGOLPHOKFCH-UHFFFAOYSA-M

>  <Smiles>
[O-]C(CCc1ccccc1)=O

>  <Molecular Formula>
C9H9O2

$$$$
2-phenyltridecane
Actelion Java MolfileCreator 2.0

  0  0  0  0  0  0              0 V3000
M  V30 BEGIN CTAB
M  V30 COUNTS 19 19 0 0 0
M  V30 BEGIN ATOM
M  V30 1 C 0.0 0.0 0.0 0
M  V30 2 C -1.3917 -0.7146 0.0 0
M  V30 3 C -0.0752 1.6048 0.0 0
M  V30 4 C 1.2412 -0.7146 0.0 0 CFG=2
M  V30 5 C -2.7834 0.1003 0.0 0
M  V30 6 C -1.4669 2.4198 0.0 0
M  V30 7 C 2.4825 0.1003 0.0 0
M  V30 8 C 1.166 -2.169 0.0 0
M  V30 9 C -2.8586 1.7051 0.0 0
M  V30 10 C 3.7237 -0.6143 0.0 0
M  V30 11 C 4.965 0.2006 0.0 0
M  V30 12 C 6.2063 -0.514 0.0 0
M  V30 13 C 7.4475 0.2883 0.0 0
M  V30 14 C 8.6888 -0.4262 0.0 0
M  V30 15 C 9.9301 0.3761 0.0 0
M  V30 16 C 11.1713 -0.3385 0.0 0
M  V30 17 C 12.4126 0.4639 0.0 0
M  V30 18 C 13.6539 -0.2507 0.0 0
M  V30 19 C 14.8951 0.5516 0.0 0
M  V30 END ATOM
M  V30 BEGIN BOND
M  V30 1 2 1 2
M  V30 2 1 1 3
M  V30 3 1 1 4
M  V30 4 1 2 5
M  V30 5 2 3 6
M  V30 6 1 4 7
M  V30 7 1 4 8 CFG=3
M  V30 8 2 5 9
M  V30 9 1 7 10
M  V30 10 1 10 11
M  V30 11 1 11 12
M  V30 12 1 12 13
M  V30 13 1 13 14
M  V30 14 1 14 15
M  V30 15 1 15 16
M  V30 16 1 16 17
M  V30 17 1 17 18
M  V30 18 1 18 19
M  V30 19 1 6 9
M  V30 END BOND
M  V30 BEGIN COLLECTION
M  V30 MDLV30/STERAC1 ATOMS=(1 4)
M  V30 END COLLECTION
M  V30 END CTAB
M  END
>  <Molecule Name>
2-phenyltridecane

>  <Molecule Name 2>
2-phenyltridecane

>  <Database>
Essential Oil Database

>  <InChI>
InChI=1S/C19H32/c1-3-4-5-6-7-8-9-10-12-15-18(2)19-16-13-11-14-17-19/h11,13-14,16-18H,3-10,12,15H2,1-2H3/t18-/m0/s1

>  <InChI-Key>
FCXPVFLEDIQLLO-SFHVURJKSA-N

>  <Smiles>
CCCCCCCCCCCC(C)c1ccccc1

>  <Molecular Formula>
C19H32

$$$$
3,4-dimethyl-5-pentyl-5h-furan-2-one
Actelion Java MolfileCreator 2.0

  0  0  0  0  0  0              0 V3000
M  V30 BEGIN CTAB
M  V30 COUNTS 13 13 0 0 0
M  V30 BEGIN ATOM
M  V30 1 O 0.0 0.0 0.0 0
M  V30 2 C 0.5626 1.4432 0.0 0
M  V30 3 O 1.9569 1.8468 0.0 0
M  V30 4 C -0.2323 2.813 0.0 0
M  V30 5 C 2.0425 3.4123 0.0 0 CFG=2
M  V30 6 C 0.6726 3.9872 0.0 0
M  V30 7 C -1.7979 3.0454 0.0 0
M  V30 8 C 3.2655 4.2073 0.0 0
M  V30 9 C 0.269 5.5282 0.0 0
M  V30 10 C 4.4886 3.4979 0.0 0
M  V30 11 C 5.7117 4.2929 0.0 0
M  V30 12 C 6.9347 3.5835 0.0 0
M  V30 13 C 8.1578 4.3785 0.0 0
M  V30 END ATOM
M  V30 BEGIN BOND
M  V30 1 2 1 2
M  V30 2 1 2 3
M  V30 3 1 2 4
M  V30 4 1 3 5
M  V30 5 2 4 6
M  V30 6 1 4 7
M  V30 7 1 5 8 CFG=3
M  V30 8 1 6 9
M  V30 9 1 8 10
M  V30 10 1 10 11
M  V30 11 1 11 12
M  V30 12 1 12 13
M  V30 13 1 5 6
M  V30 END BOND
M  V30 BEGIN COLLECTION
M  V30 MDLV30/STERAC1 ATOMS=(1 5)
M  V30 END COLLECTION
M  V30 END CTAB
M  END
>  <Molecule Name>
3,4-dimethyl-5-pentyl-5h-furan-2-one

>  <Molecule Name 2>
3,4-dimethyl-5-pentyl-5h-furan-2-one

>  <Database>
Essential Oil Database

>  <InChI>
InChI=1S/C11H18O2/c1-4-5-6-7-10-8(2)9(3)11(12)13-10/h10H,4-7H2,1-3H3/t10-/m0/s1

>  <InChI-Key>
LRKURLXWGJNWOJ-JTQLQIEISA-N

>  <Smiles>
CCCCCC(C(C)=C1C)OC1=O

>  <Molecular Formula>
C11H18O2

$$$$
3-ethenylpyridine
Actelion Java MolfileCreator 2.0

  0  0  0  0  0  0              0 V3000
M  V30 BEGIN CTAB
M  V30 COUNTS 8 8 0 0 0
M  V30 BEGIN ATOM
M  V30 1 N 0.0 0.0 0.0 0
M  V30 2 C -0.0735 1.5692 0.0 0
M  V30 3 C 1.2136 -0.6987 0.0 0
M  V30 4 C 1.1401 2.366 0.0 0
M  V30 5 C 2.4273 0.0858 0.0 0
M  V30 6 C 2.3538 1.6672 0.0 0
M  V30 7 C 1.0665 3.9352 0.0 0
M  V30 8 C -0.2942 4.7321 0.0 0
M  V30 END ATOM
M  V30 BEGIN BOND
M  V30 1 2 1 2
M  V30 2 1 1 3
M  V30 3 1 2 4
M  V30 4 2 3 5
M  V30 5 2 4 6
M  V30 6 1 4 7
M  V30 7 2 7 8
M  V30 8 1 5 6
M  V30 END BOND
M  V30 END CTAB
M  END
>  <Molecule Name>
3-ethenylpyridine

>  <Molecule Name 2>
3-ethenylpyridine

>  <Database>
Essential Oil Database

>  <InChI>
InChI=1S/C7H7N/c1-2-7-4-3-5-8-6-7/h2-6H,1H2

>  <InChI-Key>
DPZYLEIWHTWHCU-UHFFFAOYSA-N

>  <Smiles>
C=Cc1cccnc1

>  <Molecular Formula>
C7H7N

$$$$
3-methylbenzyl alcohol
Actelion Java MolfileCreator 2.0

  0  0  0  0  0  0              0 V3000
M  V30 BEGIN CTAB
M  V30 COUNTS 9 9 0 0 0
M  V30 BEGIN ATOM
M  V30 1 O 0.0 0.0 0.0 0
M  V30 2 C 1.2931 -0.6762 0.0 0
M  V30 3 C 1.2219 -2.171 0.0 0
M  V30 4 C 2.515 -2.8472 0.0 0
M  V30 5 C -0.2135 -2.8472 0.0 0
M  V30 6 C 2.4438 -4.342 0.0 0
M  V30 7 C -0.2847 -4.342 0.0 0
M  V30 8 C 1.0083 -5.0182 0.0 0
M  V30 9 C 3.7369 -5.0182 0.0 0
M  V30 END ATOM
M  V30 BEGIN BOND
M  V30 1 1 1 2
M  V30 2 1 2 3
M  V30 3 2 3 4
M  V30 4 1 3 5
M  V30 5 1 4 6
M  V30 6 2 5 7
M  V30 7 2 6 8
M  V30 8 1 6 9
M  V30 9 1 7 8
M  V30 END BOND
M  V30 END CTAB
M  END
>  <Molecule Name>
3-methylbenzyl alcohol

>  <Molecule Name 2>
3-methylbenzyl alcohol

>  <Database>
Essential Oil Database

>  <InChI>
InChI=1S/C8H10O/c1-7-3-2-4-8(5-7)6-9/h2-5,9H,6H2,1H3

>  <InChI-Key>
JJCKHVUTVOPLBV-UHFFFAOYSA-N

>  <Smiles>
Cc1cccc(CO)c1

>  <Molecular Formula>
C8H10O

$$$$
3-methylheptadecane
Actelion Java MolfileCreator 2.0

  0  0  0  0  0  0              0 V3000
M  V30 BEGIN CTAB
M  V30 COUNTS 18 17 0 0 0
M  V30 BEGIN ATOM
M  V30 1 C 0.0 0.0 0.0 0 CFG=2
M  V30 2 C 1.2585 -0.7246 0.0 0
M  V30 3 C -1.411 -0.7246 0.0 0
M  V30 4 C -0.0762 1.6271 0.0 0
M  V30 5 C 2.517 0.0889 0.0 0
M  V30 6 C -2.8221 0.0889 0.0 0
M  V30 7 C 3.7756 -0.6356 0.0 0
M  V30 8 C 5.0341 0.1779 0.0 0
M  V30 9 C 6.2926 -0.5466 0.0 0
M  V30 10 C 7.5512 0.2669 0.0 0
M  V30 11 C 8.8097 -0.4576 0.0 0
M  V30 12 C 10.0682 0.3559 0.0 0
M  V30 13 C 11.3268 -0.3686 0.0 0
M  V30 14 C 12.5853 0.4449 0.0 0
M  V30 15 C 13.8438 -0.2796 0.0 0
M  V30 16 C 15.1024 0.5339 0.0 0
M  V30 17 C 16.3609 -0.1906 0.0 0
M  V30 18 C 17.6194 0.6229 0.0 0
M  V30 END ATOM
M  V30 BEGIN BOND
M  V30 1 1 1 2
M  V30 2 1 1 3
M  V30 3 1 1 4 CFG=3
M  V30 4 1 2 5
M  V30 5 1 3 6
M  V30 6 1 5 7
M  V30 7 1 7 8
M  V30 8 1 8 9
M  V30 9 1 9 10
M  V30 10 1 10 11
M  V30 11 1 11 12
M  V30 12 1 12 13
M  V30 13 1 13 14
M  V30 14 1 14 15
M  V30 15 1 15 16
M  V30 16 1 16 17
M  V30 17 1 17 18
M  V30 END BOND
M  V30 BEGIN COLLECTION
M  V30 MDLV30/STERAC1 ATOMS=(1 1)
M  V30 END COLLECTION
M  V30 END CTAB
M  END
>  <Molecule Name>
3-methylheptadecane

>  <Molecule Name 2>
3-methylheptadecane

>  <Database>
Essential Oil Database

>  <InChI>
InChI=1S/C18H38/c1-4-6-7-8-9-10-11-12-13-14-15-16-17-18(3)5-2/h18H,4-17H2,1-3H3/t18-/m0/s1

>  <InChI-Key>
HPDKJRSKBCPMIY-SFHVURJKSA-N

>  <Smiles>
CCCCCCCCCCCCCCC(C)CC

>  <Molecular Formula>
C18H38

$$$$
3-phenyldodecane
Actelion Java MolfileCreator 2.0

  0  0  0  0  0  0              0 V3000
M  V30 BEGIN CTAB
M  V30 COUNTS 18 18 0 0 0
M  V30 BEGIN ATOM
M  V30 1 C 0.0 0.0 0.0 0
M  V30 2 C -1.3838 -0.7106 0.0 0
M  V30 3 C -0.0748 1.5957 0.0 0
M  V30 4 C 1.2342 -0.7106 0.0 0 CFG=2
M  V30 5 C -2.7676 0.0997 0.0 0
M  V30 6 C -1.4586 2.4061 0.0 0
M  V30 7 C 2.4684 0.0997 0.0 0
M  V30 8 C 1.1594 -2.1567 0.0 0
M  V30 9 C -2.8424 1.6954 0.0 0
M  V30 10 C 3.7026 -0.6108 0.0 0
M  V30 11 C -0.2244 -2.8673 0.0 0
M  V30 12 C 4.9368 0.1994 0.0 0
M  V30 13 C 6.171 -0.5111 0.0 0
M  V30 14 C 7.4053 0.2867 0.0 0
M  V30 15 C 8.6395 -0.4238 0.0 0
M  V30 16 C 9.8737 0.374 0.0 0
M  V30 17 C 11.1079 -0.3366 0.0 0
M  V30 18 C 12.3421 0.4612 0.0 0
M  V30 END ATOM
M  V30 BEGIN BOND
M  V30 1 2 1 2
M  V30 2 1 1 3
M  V30 3 1 1 4
M  V30 4 1 2 5
M  V30 5 2 3 6
M  V30 6 1 4 7 CFG=3
M  V30 7 1 4 8
M  V30 8 2 5 9
M  V30 9 1 7 10
M  V30 10 1 8 11
M  V30 11 1 10 12
M  V30 12 1 12 13
M  V30 13 1 13 14
M  V30 14 1 14 15
M  V30 15 1 15 16
M  V30 16 1 16 17
M  V30 17 1 17 18
M  V30 18 1 6 9
M  V30 END BOND
M  V30 BEGIN COLLECTION
M  V30 MDLV30/STERAC1 ATOMS=(1 4)
M  V30 END COLLECTION
M  V30 END CTAB
M  END
>  <Molecule Name>
3-phenyldodecane

>  <Molecule Name 2>
3-phenyldodecane

>  <Database>
Essential Oil Database

>  <InChI>
InChI=1S/C18H30/c1-3-5-6-7-8-9-11-14-17(4-2)18-15-12-10-13-16-18/h10,12-13,15-17H,3-9,11,14H2,1-2H3/t17-/m0/s1

>  <InChI-Key>
PGVOXXHNGYYHHB-KRWDZBQOSA-N

>  <Smiles>
CCCCCCCCCC(CC)c1ccccc1

>  <Molecular Formula>
C18H30

$$$$
4-(2,6,6-trimethyl-1,3-cyclohexadien-1-yl)-2-butanone
Actelion Java MolfileCreator 2.0

  0  0  0  0  0  0              0 V3000
M  V30 BEGIN CTAB
M  V30 COUNTS 14 14 0 0 0
M  V30 BEGIN ATOM
M  V30 1 O 0.0 0.0 0.0 0
M  V30 2 C -1.3462 0.7883 0.0 0
M  V30 3 C -2.6925 0.097 0.0 0
M  V30 4 C -1.419 2.3408 0.0 0
M  V30 5 C -2.7653 -1.3098 0.0 0
M  V30 6 C -4.1115 -2.0012 0.0 0
M  V30 7 C -4.1843 -3.4081 0.0 0
M  V30 8 C -5.4578 -1.2128 0.0 0
M  V30 9 C -5.5306 -4.0994 0.0 0
M  V30 10 C -2.9836 -4.0994 0.0 0
M  V30 11 C -6.804 -1.9041 0.0 0
M  V30 12 C -6.2461 0.1576 0.0 0
M  V30 13 C -4.8028 0.1576 0.0 0
M  V30 14 C -6.8768 -3.311 0.0 0
M  V30 END ATOM
M  V30 BEGIN BOND
M  V30 1 2 1 2
M  V30 2 1 2 3
M  V30 3 1 2 4
M  V30 4 1 3 5
M  V30 5 1 5 6
M  V30 6 2 6 7
M  V30 7 1 6 8
M  V30 8 1 7 9
M  V30 9 1 7 10
M  V30 10 1 8 11
M  V30 11 1 8 12
M  V30 12 1 8 13
M  V30 13 2 9 14
M  V30 14 1 11 14
M  V30 END BOND
M  V30 END CTAB
M  END
>  <Molecule Name>
4-(2,6,6-trimethyl-1,3-cyclohexadien-1-yl)-2-butanone

>  <Molecule Name 2>
4-(2,6,6-trimethyl-1,3-cyclohexadien-1-yl)-2-butanone

>  <Database>
Essential Oil Database

>  <InChI>
InChI=1S/C13H20O/c1-10-6-5-9-13(3,4)12(10)8-7-11(2)14/h5-6H,7-9H2,1-4H3

>  <InChI-Key>
SQFRYZPEWOZAKJ-UHFFFAOYSA-N

>  <Smiles>
CC1(C)C(CCC(C)=O)=C(C)C=CC1

>  <Molecular Formula>
C13H20O

$$$$
4-methyltetradecane
Actelion Java MolfileCreator 2.0

  0  0  0  0  0  0              0 V3000
M  V30 BEGIN CTAB
M  V30 COUNTS 15 14 0 0 0
M  V30 BEGIN ATOM
M  V30 1 C 0.0 0.0 0.0 0 CFG=2
M  V30 2 C 1.246 -0.73 0.0 0
M  V30 3 C -1.3971 -0.73 0.0 0
M  V30 4 C -0.0755 1.611 0.0 0
M  V30 5 C 2.4921 0.0755 0.0 0
M  V30 6 C -2.7942 0.0755 0.0 0
M  V30 7 C 3.7382 -0.6419 0.0 0
M  V30 8 C -4.1913 -0.6419 0.0 0
M  V30 9 C 4.9842 0.1762 0.0 0
M  V30 10 C 6.2303 -0.5412 0.0 0
M  V30 11 C 7.4764 0.2643 0.0 0
M  V30 12 C 8.7224 -0.4657 0.0 0
M  V30 13 C 9.9685 0.3398 0.0 0
M  V30 14 C 11.2146 -0.3775 0.0 0
M  V30 15 C 12.4606 0.4279 0.0 0
M  V30 END ATOM
M  V30 BEGIN BOND
M  V30 1 1 1 2
M  V30 2 1 1 3
M  V30 3 1 1 4 CFG=3
M  V30 4 1 2 5
M  V30 5 1 3 6
M  V30 6 1 5 7
M  V30 7 1 6 8
M  V30 8 1 7 9
M  V30 9 1 9 10
M  V30 10 1 10 11
M  V30 11 1 11 12
M  V30 12 1 12 13
M  V30 13 1 13 14
M  V30 14 1 14 15
M  V30 END BOND
M  V30 BEGIN COLLECTION
M  V30 MDLV30/STERAC1 ATOMS=(1 1)
M  V30 END COLLECTION
M  V30 END CTAB
M  END
>  <Molecule Name>
4-methyltetradecane

>  <Molecule Name 2>
4-methyltetradecane

>  <Database>
Essential Oil Database

>  <InChI>
InChI=1S/C15H32/c1-4-6-7-8-9-10-11-12-14-15(3)13-5-2/h15H,4-14H2,1-3H3/t15-/m0/s1

>  <InChI-Key>
ITVMHPMCNRGCIY-HNNXBMFYSA-N

>  <Smiles>
CCCCCCCCCCC(C)CCC

>  <Molecular Formula>
C15H32

$$$$
4-phenyldodecane
Actelion Java MolfileCreator 2.0

  0  0  0  0  0  0              0 V3000
M  V30 BEGIN CTAB
M  V30 COUNTS 18 18 0 0 0
M  V30 BEGIN ATOM
M  V30 1 C 0.0 0.0 0.0 0
M  V30 2 C -1.5507 -0.3663 0.0 0
M  V30 3 C 0.3052 1.5629 0.0 0
M  V30 4 C 1.0134 -0.9768 0.0 0 CFG=2
M  V30 5 C -2.7107 0.757 0.0 0
M  V30 6 C -0.8547 2.6862 0.0 0
M  V30 7 C 2.4176 -0.4639 0.0 0
M  V30 8 C 0.5616 -2.3932 0.0 0
M  V30 9 C -2.4054 2.3199 0.0 0
M  V30 10 C 3.4311 -1.4408 0.0 0
M  V30 11 C 1.5751 -3.37 0.0 0
M  V30 12 C 4.8353 -0.9279 0.0 0
M  V30 13 C 1.1233 -4.7864 0.0 0
M  V30 14 C 5.8488 -1.9048 0.0 0
M  V30 15 C 7.253 -1.3919 0.0 0
M  V30 16 C 8.2664 -2.3688 0.0 0
M  V30 17 C 9.6706 -1.8559 0.0 0
M  V30 18 C 10.6841 -2.8328 0.0 0
M  V30 END ATOM
M  V30 BEGIN BOND
M  V30 1 2 1 2
M  V30 2 1 1 3
M  V30 3 1 1 4
M  V30 4 1 2 5
M  V30 5 2 3 6
M  V30 6 1 4 7 CFG=3
M  V30 7 1 4 8
M  V30 8 2 5 9
M  V30 9 1 7 10
M  V30 10 1 8 11
M  V30 11 1 10 12
M  V30 12 1 11 13
M  V30 13 1 12 14
M  V30 14 1 14 15
M  V30 15 1 15 16
M  V30 16 1 16 17
M  V30 17 1 17 18
M  V30 18 1 6 9
M  V30 END BOND
M  V30 BEGIN COLLECTION
M  V30 MDLV30/STERAC1 ATOMS=(1 4)
M  V30 END COLLECTION
M  V30 END CTAB
M  END
>  <Molecule Name>
4-phenyldodecane

>  <Molecule Name 2>
4-phenyldodecane

>  <Database>
Essential Oil Database

>  <InChI>
InChI=1S/C18H30/c1-3-5-6-7-8-10-14-17(13-4-2)18-15-11-9-12-16-18/h9,11-12,15-17H,3-8,10,13-14H2,1-2H3/t17-/m0/s1

>  <InChI-Key>
RHDHXBLZBVAPTL-KRWDZBQOSA-N

>  <Smiles>
CCCCCCCCC(CCC)c1ccccc1

>  <Molecular Formula>
C18H30

$$$$
5-phenyldodecane
Actelion Java MolfileCreator 2.0

  0  0  0  0  0  0              0 V3000
M  V30 BEGIN CTAB
M  V30 COUNTS 18 18 0 0 0
M  V30 BEGIN ATOM
M  V30 1 C 0.0 0.0 0.0 0
M  V30 2 C 1.235 -0.711 0.0 0
M  V30 3 C -1.3847 -0.711 0.0 0
M  V30 4 C -0.0748 1.5968 0.0 0 CFG=2
M  V30 5 C 1.1601 -2.1581 0.0 0
M  V30 6 C -1.4595 -2.1581 0.0 0
M  V30 7 C 1.1601 2.4201 0.0 0
M  V30 8 C -1.4595 2.4201 0.0 0
M  V30 9 C -0.2245 -2.8817 0.0 0
M  V30 10 C 2.3952 1.709 0.0 0
M  V30 11 C -2.8443 1.709 0.0 0
M  V30 12 C 3.6302 2.5199 0.0 0
M  V30 13 C -4.229 2.5199 0.0 0
M  V30 14 C 4.8652 1.8088 0.0 0
M  V30 15 C -5.6137 1.8088 0.0 0
M  V30 16 C 6.1003 2.6322 0.0 0
M  V30 17 C 7.3353 1.9211 0.0 0
M  V30 18 C 8.5703 2.732 0.0 0
M  V30 END ATOM
M  V30 BEGIN BOND
M  V30 1 2 1 2
M  V30 2 1 1 3
M  V30 3 1 1 4
M  V30 4 1 2 5
M  V30 5 2 3 6
M  V30 6 1 4 7 CFG=1
M  V30 7 1 4 8
M  V30 8 2 5 9
M  V30 9 1 7 10
M  V30 10 1 8 11
M  V30 11 1 10 12
M  V30 12 1 11 13
M  V30 13 1 12 14
M  V30 14 1 13 15
M  V30 15 1 14 16
M  V30 16 1 16 17
M  V30 17 1 17 18
M  V30 18 1 6 9
M  V30 END BOND
M  V30 BEGIN COLLECTION
M  V30 MDLV30/STERAC1 ATOMS=(1 4)
M  V30 END COLLECTION
M  V30 END CTAB
M  END
>  <Molecule Name>
5-phenyldodecane

>  <Molecule Name 2>
5-phenyldodecane

>  <Database>
Essential Oil Database

>  <InChI>
InChI=1S/C18H30/c1-3-5-7-8-10-14-17(13-6-4-2)18-15-11-9-12-16-18/h9,11-12,15-17H,3-8,10,13-14H2,1-2H3/t17-/m0/s1

>  <InChI-Key>
NPAWGLOPXKCTCV-KRWDZBQOSA-N

>  <Smiles>
CCCCCCCC(CCCC)c1ccccc1

>  <Molecular Formula>
C18H30

$$$$
5-phenyltridecane
Actelion Java MolfileCreator 2.0

  0  0  0  0  0  0              0 V3000
M  V30 BEGIN CTAB
M  V30 COUNTS 19 19 0 0 0
M  V30 BEGIN ATOM
M  V30 1 C 0.0 0.0 0.0 0
M  V30 2 C -1.3725 0.7913 0.0 0
M  V30 3 C 1.2241 0.7913 0.0 0
M  V30 4 C -0.0741 -1.4343 0.0 0 CFG=2
M  V30 5 C -1.4467 2.374 0.0 0
M  V30 6 C 1.1499 2.374 0.0 0
M  V30 7 C 1.1499 -2.1515 0.0 0
M  V30 8 C -1.4467 -2.1515 0.0 0
M  V30 9 C -0.2225 3.1654 0.0 0
M  V30 10 C 2.374 -1.3477 0.0 0
M  V30 11 C -2.8192 -1.3477 0.0 0
M  V30 12 C 3.5982 -2.0649 0.0 0
M  V30 13 C -4.1917 -2.0649 0.0 0
M  V30 14 C 4.8223 -1.2612 0.0 0
M  V30 15 C -5.5642 -1.2612 0.0 0
M  V30 16 C 6.0464 -1.9784 0.0 0
M  V30 17 C 7.2706 -1.1746 0.0 0
M  V30 18 C 8.4947 -1.8918 0.0 0
M  V30 19 C 9.7189 -1.0881 0.0 0
M  V30 END ATOM
M  V30 BEGIN BOND
M  V30 1 2 1 2
M  V30 2 1 1 3
M  V30 3 1 1 4
M  V30 4 1 2 5
M  V30 5 2 3 6
M  V30 6 1 4 7 CFG=3
M  V30 7 1 4 8
M  V30 8 2 5 9
M  V30 9 1 7 10
M  V30 10 1 8 11
M  V30 11 1 10 12
M  V30 12 1 11 13
M  V30 13 1 12 14
M  V30 14 1 13 15
M  V30 15 1 14 16
M  V30 16 1 16 17
M  V30 17 1 17 18
M  V30 18 1 18 19
M  V30 19 1 6 9
M  V30 END BOND
M  V30 BEGIN COLLECTION
M  V30 MDLV30/STERAC1 ATOMS=(1 4)
M  V30 END COLLECTION
M  V30 END CTAB
M  END
>  <Molecule Name>
5-phenyltridecane

>  <Molecule Name 2>
5-phenyltridecane

>  <Database>
Essential Oil Database

>  <InChI>
InChI=1S/C19H32/c1-3-5-7-8-9-11-15-18(14-6-4-2)19-16-12-10-13-17-19/h10,12-13,16-18H,3-9,11,14-15H2,1-2H3/t18-/m0/s1

>  <InChI-Key>
MZTIRLOLMGVVEK-SFHVURJKSA-N

>  <Smiles>
CCCCCCCCC(CCCC)c1ccccc1

>  <Molecular Formula>
C19H32

$$$$
6-phenyldodecane
Actelion Java MolfileCreator 2.0

  0  0  0  0  0  0              0 V3000
M  V30 BEGIN CTAB
M  V30 COUNTS 18 18 0 0 0
M  V30 BEGIN ATOM
M  V30 1 C 0.0 0.0 0.0 0
M  V30 2 C -1.3628 0.7857 0.0 0
M  V30 3 C 1.2155 0.7857 0.0 0
M  V30 4 C -0.0736 -1.4242 0.0 0 CFG=2
M  V30 5 C -1.4365 2.3573 0.0 0
M  V30 6 C 1.1418 2.3573 0.0 0
M  V30 7 C 1.1418 -2.1363 0.0 0
M  V30 8 C -1.4365 -2.1363 0.0 0
M  V30 9 C -0.221 3.1554 0.0 0
M  V30 10 C 2.3573 -1.3382 0.0 0
M  V30 11 C -2.7993 -1.3382 0.0 0
M  V30 12 C 3.5728 -2.0504 0.0 0
M  V30 13 C -4.1622 -2.0504 0.0 0
M  V30 14 C 4.7883 -1.24 0.0 0
M  V30 15 C -5.525 -1.24 0.0 0
M  V30 16 C 6.0039 -1.9521 0.0 0
M  V30 17 C -6.8879 -1.9521 0.0 0
M  V30 18 C 7.2194 -1.1541 0.0 0
M  V30 END ATOM
M  V30 BEGIN BOND
M  V30 1 2 1 2
M  V30 2 1 1 3
M  V30 3 1 1 4
M  V30 4 1 2 5
M  V30 5 2 3 6
M  V30 6 1 4 7 CFG=3
M  V30 7 1 4 8
M  V30 8 2 5 9
M  V30 9 1 7 10
M  V30 10 1 8 11
M  V30 11 1 10 12
M  V30 12 1 11 13
M  V30 13 1 12 14
M  V30 14 1 13 15
M  V30 15 1 14 16
M  V30 16 1 15 17
M  V30 17 1 16 18
M  V30 18 1 6 9
M  V30 END BOND
M  V30 BEGIN COLLECTION
M  V30 MDLV30/STERAC1 ATOMS=(1 4)
M  V30 END COLLECTION
M  V30 END CTAB
M  END
>  <Molecule Name>
6-phenyldodecane

>  <Molecule Name 2>
6-phenyldodecane

>  <Database>
Essential Oil Database

>  <InChI>
InChI=1S/C18H30/c1-3-5-7-10-14-17(13-9-6-4-2)18-15-11-8-12-16-18/h8,11-12,15-17H,3-7,9-10,13-14H2,1-2H3/t17-/m0/s1

>  <InChI-Key>
ZYHJQFMTTFCBKH-KRWDZBQOSA-N

>  <Smiles>
CCCCCCC(CCCCC)c1ccccc1

>  <Molecular Formula>
C18H30

$$$$
acenaphthylene
Actelion Java MolfileCreator 2.0

  0  0  0  0  0  0              0 V3000
M  V30 BEGIN CTAB
M  V30 COUNTS 12 14 0 0 0
M  V30 BEGIN ATOM
M  V30 1 C 0.0 0.0 0.0 0
M  V30 2 C 0.073 1.5102 0.0 0
M  V30 3 C -1.3884 -0.4871 0.0 0
M  V30 4 C 1.5346 -0.4871 0.0 0
M  V30 5 C -1.1814 2.448 0.0 0
M  V30 6 C 1.1814 2.448 0.0 0
M  V30 7 C -2.6429 0.4628 0.0 0
M  V30 8 C 2.6429 0.4628 0.0 0
M  V30 9 C -2.5698 1.9609 0.0 0
M  V30 10 C -0.8282 3.8974 0.0 0
M  V30 11 C 2.4237 1.9609 0.0 0
M  V30 12 C 0.682 3.8974 0.0 0
M  V30 END ATOM
M  V30 BEGIN BOND
M  V30 1 1 1 2
M  V30 2 1 1 3
M  V30 3 2 1 4
M  V30 4 1 2 5
M  V30 5 2 2 6
M  V30 6 2 3 7
M  V30 7 1 4 8
M  V30 8 2 5 9
M  V30 9 1 5 10
M  V30 10 1 6 11
M  V30 11 1 6 12
M  V30 12 1 7 9
M  V30 13 2 8 11
M  V30 14 2 10 12
M  V30 END BOND
M  V30 END CTAB
M  END
>  <Molecule Name>
acenaphthylene

>  <Molecule Name 2>
acenaphthylene

>  <Database>
Essential Oil Database

>  <InChI>
InChI=1S/C12H8/c1-3-9-4-2-6-11-8-7-10(5-1)12(9)11/h1-8H

>  <InChI-Key>
HXGDTGSAIMULJN-UHFFFAOYSA-N

>  <Smiles>
C1=Cc2cccc3cccc1c23

>  <Molecular Formula>
C12H8

$$$$
benzyl nonanoate
Actelion Java MolfileCreator 2.0

  0  0  0  0  0  0              0 V3000
M  V30 BEGIN CTAB
M  V30 COUNTS 18 18 0 0 0
M  V30 BEGIN ATOM
M  V30 1 O 0.0 0.0 0.0 0
M  V30 2 C -0.0684 -1.4366 0.0 0
M  V30 3 O 1.1743 -2.0865 0.0 0
M  V30 4 C -1.448 -2.0865 0.0 0
M  V30 5 C 2.4171 -1.2428 0.0 0
M  V30 6 C -2.8276 -1.2428 0.0 0
M  V30 7 C 3.6599 -1.8927 0.0 0
M  V30 8 C -4.2072 -1.8927 0.0 0
M  V30 9 C 4.9028 -1.0489 0.0 0
M  V30 10 C 3.5915 -3.3293 0.0 0
M  V30 11 C -5.5869 -1.0489 0.0 0
M  V30 12 C 6.1456 -1.6988 0.0 0
M  V30 13 C 4.8343 -3.9792 0.0 0
M  V30 14 C -6.9665 -1.6988 0.0 0
M  V30 15 C 6.0771 -3.1355 0.0 0
M  V30 16 C -8.3461 -0.8551 0.0 0
M  V30 17 C -9.7257 -1.505 0.0 0
M  V30 18 C -11.1054 -0.6613 0.0 0
M  V30 END ATOM
M  V30 BEGIN BOND
M  V30 1 2 1 2
M  V30 2 1 2 3
M  V30 3 1 2 4
M  V30 4 1 3 5
M  V30 5 1 4 6
M  V30 6 1 5 7
M  V30 7 1 6 8
M  V30 8 2 7 9
M  V30 9 1 7 10
M  V30 10 1 8 11
M  V30 11 1 9 12
M  V30 12 2 10 13
M  V30 13 1 11 14
M  V30 14 2 12 15
M  V30 15 1 14 16
M  V30 16 1 16 17
M  V30 17 1 17 18
M  V30 18 1 13 15
M  V30 END BOND
M  V30 END CTAB
M  END
>  <Molecule Name>
benzyl nonanoate

>  <Molecule Name 2>
benzyl nonanoate

>  <Database>
Essential Oil Database

>  <InChI>
InChI=1S/C16H24O2/c1-2-3-4-5-6-10-13-16(17)18-14-15-11-8-7-9-12-15/h7-9,11-12H,2-6,10,13-14H2,1H3

>  <InChI-Key>
KVIQEJMWUXBBQJ-UHFFFAOYSA-N

>  <Smiles>
CCCCCCCCC(OCc1ccccc1)=O

>  <Molecular Formula>
C16H24O2

$$$$
(e)-2-hexyl-cinnamaldehyde
Actelion Java MolfileCreator 2.0

  0  0  0  0  0  0              0 V3000
M  V30 BEGIN CTAB
M  V30 COUNTS 16 16 0 0 0
M  V30 BEGIN ATOM
M  V30 1 O 0.0 0.0 0.0 0
M  V30 2 C -0.0689 -1.4486 0.0 0
M  V30 3 C -1.4601 -2.1039 0.0 0
M  V30 4 C -1.529 -3.5525 0.0 0
M  V30 5 C -2.9202 -4.2078 0.0 0
M  V30 6 C -2.9892 -5.6565 0.0 0
M  V30 7 C -4.3113 -3.3571 0.0 0
M  V30 8 C -4.3803 -6.3118 0.0 0
M  V30 9 C -1.736 -6.3118 0.0 0
M  V30 10 C -5.7025 -4.0124 0.0 0
M  V30 11 C -5.7714 -5.461 0.0 0
M  V30 12 C -0.4828 -5.461 0.0 0
M  V30 13 C 0.7702 -6.1163 0.0 0
M  V30 14 C 2.0234 -5.2656 0.0 0
M  V30 15 C 3.2766 -5.9209 0.0 0
M  V30 16 C 4.5298 -5.0701 0.0 0
M  V30 END ATOM
M  V30 BEGIN BOND
M  V30 1 2 1 2
M  V30 2 1 2 3
M  V30 3 2 3 4
M  V30 4 1 4 5
M  V30 5 2 5 6
M  V30 6 1 5 7
M  V30 7 1 6 8
M  V30 8 1 6 9
M  V30 9 2 7 10
M  V30 10 2 8 11
M  V30 11 1 9 12
M  V30 12 1 12 13
M  V30 13 1 13 14
M  V30 14 1 14 15
M  V30 15 1 15 16
M  V30 16 1 10 11
M  V30 END BOND
M  V30 END CTAB
M  END
>  <Molecule Name>
(e)-2-hexyl-cinnamaldehyde

>  <Molecule Name 2>
(e)-2-hexyl-cinnamaldehyde

>  <Database>
Essential Oil Database

>  <InChI>
InChI=1S/C15H20O/c1-2-3-4-5-9-14-10-6-7-11-15(14)12-8-13-16/h6-8,10-13H,2-5,9H2,1H3/b12-8+

>  <InChI-Key>
HYKXSPUBXYFAHI-XYOKQWHBSA-N

>  <Smiles>
CCCCCCc1c(/C=C/C=O)cccc1

>  <Molecular Formula>
C15H20O

$$$$
(e,e)-pseudoionone
Actelion Java MolfileCreator 2.0

  0  0  0  0  0  0              0 V3000
M  V30 BEGIN CTAB
M  V30 COUNTS 14 13 0 0 0
M  V30 BEGIN ATOM
M  V30 1 O 0.0 0.0 0.0 0
M  V30 2 C -0.793 1.3754 0.0 0
M  V30 3 C -0.0867 2.7508 0.0 0
M  V30 4 C -2.379 1.4497 0.0 0
M  V30 5 C 1.3506 2.8251 0.0 0
M  V30 6 C 2.0569 4.2005 0.0 0
M  V30 7 C 3.4942 4.2748 0.0 0
M  V30 8 C 4.2005 5.6502 0.0 0
M  V30 9 C 4.2005 3.0481 0.0 0
M  V30 10 C 5.6379 5.7246 0.0 0
M  V30 11 C 6.3565 7.1 0.0 0
M  V30 12 C 7.7939 7.1743 0.0 0
M  V30 13 C 8.5002 8.5497 0.0 0
M  V30 14 C 8.5002 5.9476 0.0 0
M  V30 END ATOM
M  V30 BEGIN BOND
M  V30 1 2 1 2
M  V30 2 1 2 3
M  V30 3 1 2 4
M  V30 4 2 3 5
M  V30 5 1 5 6
M  V30 6 2 6 7
M  V30 7 1 7 8
M  V30 8 1 7 9
M  V30 9 1 8 10
M  V30 10 1 10 11
M  V30 11 2 11 12
M  V30 12 1 12 13
M  V30 13 1 12 14
M  V30 END BOND
M  V30 END CTAB
M  END
>  <Molecule Name>
(e,e)-pseudoionone

>  <Molecule Name 2>
(e,e)-pseudoionone

>  <Database>
Essential Oil Database

>  <InChI>
InChI=1S/C13H20O/c1-11(2)7-5-8-12(3)9-6-10-13(4)14/h6-7,9-10H,5,8H2,1-4H3/b10-6+,12-9+

>  <InChI-Key>
JXJIQCXXJGRKRJ-KOOBJXAQSA-N

>  <Smiles>
CC(C)=CCC/C(\C)=C/C=C/C(C)=O

>  <Molecular Formula>
C13H20O

$$$$
erythrocentaurin
Actelion Java MolfileCreator 2.0

  0  0  0  0  0  0              0 V3000
M  V30 BEGIN CTAB
M  V30 COUNTS 13 14 0 0 0
M  V30 BEGIN ATOM
M  V30 1 O 0.0 0.0 0.0 0
M  V30 2 C -0.0711 1.5171 0.0 0
M  V30 3 O 1.1023 2.2875 0.0 0
M  V30 4 C -1.3867 2.2875 0.0 0
M  V30 5 C 1.0311 3.8047 0.0 0
M  V30 6 C -1.4578 3.8047 0.0 0
M  V30 7 C -2.7024 1.6001 0.0 0
M  V30 8 C -0.2844 4.5751 0.0 0
M  V30 9 C -2.7735 4.5751 0.0 0
M  V30 10 C -4.018 2.3705 0.0 0
M  V30 11 C -4.0891 3.8995 0.0 0
M  V30 12 C -2.8446 6.0923 0.0 0
M  V30 13 O -4.1603 6.8627 0.0 0
M  V30 END ATOM
M  V30 BEGIN BOND
M  V30 1 2 1 2
M  V30 2 1 2 3
M  V30 3 1 2 4
M  V30 4 1 3 5
M  V30 5 2 4 6
M  V30 6 1 4 7
M  V30 7 1 5 8
M  V30 8 1 6 9
M  V30 9 2 7 10
M  V30 10 2 9 11
M  V30 11 1 9 12
M  V30 12 2 12 13
M  V30 13 1 6 8
M  V30 14 1 10 11
M  V30 END BOND
M  V30 END CTAB
M  END
>  <Molecule Name>
erythrocentaurin

>  <Molecule Name 2>
erythrocentaurin

>  <Database>
Essential Oil Database

>  <InChI>
InChI=1S/C10H8O3/c11-6-7-2-1-3-9-8(7)4-5-13-10(9)12/h1-3,6H,4-5H2

>  <InChI-Key>
TUADBWMDDLWUME-UHFFFAOYSA-N

>  <Smiles>
O=Cc1cccc2c1CCOC2=O

>  <Molecular Formula>
C10H8O3

$$$$
(e,z)-2,4-heptadienal
Actelion Java MolfileCreator 2.0

  0  0  0  0  0  0              0 V3000
M  V30 BEGIN CTAB
M  V30 COUNTS 8 7 0 0 0
M  V30 BEGIN ATOM
M  V30 1 O 0.0 0.0 0.0 0
M  V30 2 C 0.6934 -1.2044 0.0 0
M  V30 3 C -0.0851 -2.4088 0.0 0
M  V30 4 C -1.6424 -2.3358 0.0 0
M  V30 5 C -2.4332 -0.9854 0.0 0
M  V30 6 C -3.9904 -0.9124 0.0 0
M  V30 7 C -4.769 -2.1168 0.0 0
M  V30 8 C -6.3263 -2.0438 0.0 0
M  V30 END ATOM
M  V30 BEGIN BOND
M  V30 1 2 1 2
M  V30 2 1 2 3
M  V30 3 2 3 4
M  V30 4 1 4 5
M  V30 5 2 5 6
M  V30 6 1 6 7
M  V30 7 1 7 8
M  V30 END BOND
M  V30 END CTAB
M  END
>  <Molecule Name>
(e,z)-2,4-heptadienal

>  <Molecule Name 2>
(e,z)-2,4-heptadienal

>  <Database>
Essential Oil Database

>  <InChI>
InChI=1S/C7H10O/c1-2-3-4-5-6-7-8/h3-7H,2H2,1H3/b4-3-,6-5-

>  <InChI-Key>
SATICYYAWWYRAM-OUPQRBNQSA-N

>  <Smiles>
CC/C=C\C=C/C=O

>  <Molecular Formula>
C7H10O

$$$$
hexahydrofarnesolacetone
Actelion Java MolfileCreator 2.0

  0  0  0  0  0  0              0 V3000
M  V30 BEGIN CTAB
M  V30 COUNTS 20 19 0 0 0
M  V30 BEGIN ATOM
M  V30 1 O 0.0 0.0 0.0 0
M  V30 2 C -0.0763 1.6294 0.0 0
M  V30 3 C 1.1838 2.4568 0.0 0
M  V30 4 C -1.4893 2.4568 0.0 0
M  V30 5 C 2.4441 1.7185 0.0 0
M  V30 6 O 2.3677 0.2418 0.0 0
M  V30 7 C 3.7043 2.5459 0.0 0
M  V30 8 C 4.9646 1.8076 0.0 0
M  V30 9 C 6.2248 2.635 0.0 0
M  V30 10 C 4.8882 0.3309 0.0 0
M  V30 11 C 7.4851 1.8967 0.0 0
M  V30 12 C 8.7453 2.7241 0.0 0
M  V30 13 C 10.0056 1.9858 0.0 0
M  V30 14 C 11.2658 2.8132 0.0 0
M  V30 15 C 9.9292 0.5091 0.0 0
M  V30 16 C 12.5261 2.0749 0.0 0
M  V30 17 C 13.7863 2.9023 0.0 0
M  V30 18 C 15.0465 2.164 0.0 0
M  V30 19 C 16.3068 2.9914 0.0 0
M  V30 20 C 14.9702 0.6874 0.0 0
M  V30 END ATOM
M  V30 BEGIN BOND
M  V30 1 2 1 2
M  V30 2 1 2 3
M  V30 3 1 2 4
M  V30 4 1 3 5
M  V30 5 1 5 6
M  V30 6 1 5 7
M  V30 7 1 7 8
M  V30 8 1 8 9
M  V30 9 1 8 10
M  V30 10 1 9 11
M  V30 11 1 11 12
M  V30 12 1 12 13
M  V30 13 1 13 14
M  V30 14 1 13 15
M  V30 15 1 14 16
M  V30 16 1 16 17
M  V30 17 1 17 18
M  V30 18 1 18 19
M  V30 19 1 18 20
M  V30 END BOND
M  V30 END CTAB
M  END
>  <Molecule Name>
hexahydrofarnesolacetone

>  <Molecule Name 2>
hexahydrofarnesolacetone

>  <Database>
Essential Oil Database

>  <InChI>
InChI=1S/C18H36O2/c1-14(2)8-6-9-15(3)10-7-11-16(4)12-18(20)13-17(5)19/h14-16,18,20H,6-13H2,1-5H3

>  <InChI-Key>
VWMUIHVPIXNTLN-UHFFFAOYSA-N

>  <Smiles>
CC(C)CCCC(C)CCCC(C)CC(CC(C)=O)O

>  <Molecular Formula>
C18H36O2

$$$$
hexyl salicylate
Actelion Java MolfileCreator 2.0

  0  0  0  0  0  0              0 V3000
M  V30 BEGIN CTAB
M  V30 COUNTS 16 16 0 0 0
M  V30 BEGIN ATOM
M  V30 1 O 0.0 0.0 0.0 0
M  V30 2 C -0.0736 1.5715 0.0 0
M  V30 3 O 1.1418 2.3696 0.0 0
M  V30 4 C -1.4365 2.3696 0.0 0
M  V30 5 C 2.3573 1.6697 0.0 0
M  V30 6 C -1.5101 3.9411 0.0 0
M  V30 7 C -2.7993 1.6697 0.0 0
M  V30 8 C 3.5728 2.4678 0.0 0
M  V30 9 O -0.2946 4.7392 0.0 0
M  V30 10 C -2.873 4.7392 0.0 0
M  V30 11 C -4.1621 2.4678 0.0 0
M  V30 12 C 4.7883 1.768 0.0 0
M  V30 13 C -4.2358 4.0394 0.0 0
M  V30 14 C 6.0038 2.566 0.0 0
M  V30 15 C 7.2193 1.8662 0.0 0
M  V30 16 C 8.4348 2.6642 0.0 0
M  V30 END ATOM
M  V30 BEGIN BOND
M  V30 1 2 1 2
M  V30 2 1 2 3
M  V30 3 1 2 4
M  V30 4 1 3 5
M  V30 5 2 4 6
M  V30 6 1 4 7
M  V30 7 1 5 8
M  V30 8 1 6 9
M  V30 9 1 6 10
M  V30 10 2 7 11
M  V30 11 1 8 12
M  V30 12 2 10 13
M  V30 13 1 12 14
M  V30 14 1 14 15
M  V30 15 1 15 16
M  V30 16 1 11 13
M  V30 END BOND
M  V30 END CTAB
M  END
>  <Molecule Name>
hexyl salicylate

>  <Molecule Name 2>
hexyl salicylate

>  <Database>
Essential Oil Database

>  <InChI>
InChI=1S/C13H18O3/c1-2-3-4-7-10-16-13(15)11-8-5-6-9-12(11)14/h5-6,8-9,14H,2-4,7,10H2,1H3

>  <InChI-Key>
DUKPKQFHJQGTGU-UHFFFAOYSA-N

>  <Smiles>
CCCCCCOC(c(cccc1)c1O)=O

>  <Molecular Formula>
C13H18O3

$$$$
m-camphorene
Actelion Java MolfileCreator 2.0

  0  0  0  0  0  0              0 V3000
M  V30 BEGIN CTAB
M  V30 COUNTS 11 12 0 0 0
M  V30 BEGIN ATOM
M  V30 1 O 0.0 0.0 0.0 0
M  V30 2 C -1.3109 0.7676 0.0 0
M  V30 3 C -1.3817 2.2793 0.0 0
M  V30 4 C -2.6218 0.0944 0.0 0 CFG=2
M  V30 5 C -2.6927 3.047 0.0 0
M  V30 6 C -3.0706 1.6061 0.0 0
M  V30 7 C -3.9327 0.8621 0.0 0
M  V30 8 C -2.6927 -1.2754 0.0 0
M  V30 9 C -4.0036 2.3738 0.0 0
M  V30 10 C -4.5232 2.1022 0.0 0
M  V30 11 C -4.5232 1.2518 0.0 0
M  V30 END ATOM
M  V30 BEGIN BOND
M  V30 1 2 1 2
M  V30 2 1 2 3
M  V30 3 1 2 4
M  V30 4 2 3 5
M  V30 5 1 4 6
M  V30 6 1 4 7
M  V30 7 1 4 8 CFG=3
M  V30 8 1 5 9
M  V30 9 1 6 10
M  V30 10 1 6 11
M  V30 11 1 5 6
M  V30 12 1 7 9
M  V30 END BOND
M  V30 BEGIN COLLECTION
M  V30 MDLV30/STERAC1 ATOMS=(1 4)
M  V30 END COLLECTION
M  V30 END CTAB
M  END
>  <Molecule Name>
m-camphorene

>  <Molecule Name 2>
m-camphorene

>  <Database>
Essential Oil Database

>  <InChI>
InChI=1S/C10H14O/c1-9(2)7-4-5-10(9,3)8(11)6-7/h6H,4-5H2,1-3H3/t10-/m1/s1

>  <InChI-Key>
IJVYXOBMIHNLFC-SNVBAGLBSA-N

>  <Smiles>
CC(C)(C1(C)CC2)C2=CC1=O

>  <Molecular Formula>
C10H14O

$$$$
phytol formate
Actelion Java MolfileCreator 2.0

  0  0  0  0  0  0              0 V3000
M  V30 BEGIN CTAB
M  V30 COUNTS 23 22 0 0 0
M  V30 BEGIN ATOM
M  V30 1 O 0.0 0.0 0.0 0
M  V30 2 C 1.2881 -0.6736 0.0 0
M  V30 3 O 2.5763 0.189 0.0 0
M  V30 4 C 3.8645 -0.4845 0.0 0
M  V30 5 C 5.1527 0.3781 0.0 0
M  V30 6 C 6.4409 -0.2954 0.0 0
M  V30 7 C 7.7291 0.5672 0.0 0
M  V30 8 C 6.37 -1.7845 0.0 0
M  V30 9 C 9.0173 -0.1063 0.0 0
M  V30 10 C 10.3055 0.7563 0.0 0
M  V30 11 C 11.5937 0.0827 0.0 0 CFG=2
M  V30 12 C 12.8819 0.9454 0.0 0
M  V30 13 C 11.5228 -1.4063 0.0 0
M  V30 14 C 14.17 0.2718 0.0 0
M  V30 15 C 15.4582 1.1345 0.0 0
M  V30 16 C 16.7464 0.4609 0.0 0 CFG=2
M  V30 17 C 18.0346 1.3236 0.0 0
M  V30 18 C 16.6755 -1.0281 0.0 0
M  V30 19 C 19.3228 0.65 0.0 0
M  V30 20 C 20.611 1.5127 0.0 0
M  V30 21 C 21.8992 0.839 0.0 0
M  V30 22 C 23.1874 1.7018 0.0 0
M  V30 23 C 21.8283 -0.65 0.0 0
M  V30 END ATOM
M  V30 BEGIN BOND
M  V30 1 2 1 2
M  V30 2 1 2 3
M  V30 3 1 3 4
M  V30 4 1 4 5
M  V30 5 2 5 6
M  V30 6 1 6 7
M  V30 7 1 6 8
M  V30 8 1 7 9
M  V30 9 1 9 10
M  V30 10 1 10 11
M  V30 11 1 11 12
M  V30 12 1 11 13 CFG=3
M  V30 13 1 12 14
M  V30 14 1 14 15
M  V30 15 1 15 16
M  V30 16 1 16 17
M  V30 17 1 16 18 CFG=3
M  V30 18 1 17 19
M  V30 19 1 19 20
M  V30 20 1 20 21
M  V30 21 1 21 22
M  V30 22 1 21 23
M  V30 END BOND
M  V30 BEGIN COLLECTION
M  V30 MDLV30/STERAC1 ATOMS=(2 11 16)
M  V30 END COLLECTION
M  V30 END CTAB
M  END
>  <Molecule Name>
phytol formate

>  <Molecule Name 2>
phytol formate

>  <Database>
Essential Oil Database

>  <InChI>
InChI=1S/C21H40O2/c1-18(2)9-6-10-19(3)11-7-12-20(4)13-8-14-21(5)15-16-23-17-22/h15,17-20H,6-14,16H2,1-5H3/b21-15+/t19-,20-/m0/s1

>  <InChI-Key>
MMNBWIOQFVFKGE-BJEIKEJXSA-N

>  <Smiles>
CC(C)CCC[C@H](C)CCC[C@H](C)CCC/C(\C)=C/COC=O

>  <Molecular Formula>
C21H40O2

$$$$
(z)-2-dodecene
Actelion Java MolfileCreator 2.0

  0  0  0  0  0  0              0 V3000
M  V30 BEGIN CTAB
M  V30 COUNTS 12 11 0 0 0
M  V30 BEGIN ATOM
M  V30 1 C 0.0 0.0 0.0 0
M  V30 2 C -1.4003 0.82 0.0 0
M  V30 3 C 1.2489 0.82 0.0 0
M  V30 4 C -1.476 2.4348 0.0 0
M  V30 5 C 2.4979 0.0883 0.0 0
M  V30 6 C 3.7468 0.9083 0.0 0
M  V30 7 C 4.9958 0.1766 0.0 0
M  V30 8 C 6.2448 0.9966 0.0 0
M  V30 9 C 7.4937 0.2649 0.0 0
M  V30 10 C 8.7427 1.0849 0.0 0
M  V30 11 C 9.9917 0.3532 0.0 0
M  V30 12 C 11.2406 1.1732 0.0 0
M  V30 END ATOM
M  V30 BEGIN BOND
M  V30 1 2 1 2
M  V30 2 1 1 3
M  V30 3 1 2 4
M  V30 4 1 3 5
M  V30 5 1 5 6
M  V30 6 1 6 7
M  V30 7 1 7 8
M  V30 8 1 8 9
M  V30 9 1 9 10
M  V30 10 1 10 11
M  V30 11 1 11 12
M  V30 END BOND
M  V30 END CTAB
M  END
>  <Molecule Name>
(z)-2-dodecene

>  <Molecule Name 2>
(z)-2-dodecene

>  <Database>
Essential Oil Database

>  <InChI>
InChI=1S/C12H24/c1-3-5-7-9-11-12-10-8-6-4-2/h3,5H,4,6-12H2,1-2H3/b5-3-

>  <InChI-Key>
ADOQBZAVKYCFOI-HYXAFXHYSA-N

>  <Smiles>
CCCCCCCCC/C=C\C

>  <Molecular Formula>
C12H24

$$$$
(z)-2-undecene
Actelion Java MolfileCreator 2.0

  0  0  0  0  0  0              0 V3000
M  V30 BEGIN CTAB
M  V30 COUNTS 11 10 0 0 0
M  V30 BEGIN ATOM
M  V30 1 C 0.0 0.0 0.0 0
M  V30 2 C -0.0764 1.6302 0.0 0
M  V30 3 C 1.2608 -0.7386 0.0 0
M  V30 4 C 1.1844 2.458 0.0 0
M  V30 5 C 2.5217 0.0891 0.0 0
M  V30 6 C 3.7826 -0.6368 0.0 0
M  V30 7 C 5.0435 0.191 0.0 0
M  V30 8 C 6.3044 -0.5349 0.0 0
M  V30 9 C 7.5652 0.2929 0.0 0
M  V30 10 C 8.8261 -0.433 0.0 0
M  V30 11 C 10.087 0.3948 0.0 0
M  V30 END ATOM
M  V30 BEGIN BOND
M  V30 1 2 1 2
M  V30 2 1 1 3
M  V30 3 1 2 4
M  V30 4 1 3 5
M  V30 5 1 5 6
M  V30 6 1 6 7
M  V30 7 1 7 8
M  V30 8 1 8 9
M  V30 9 1 9 10
M  V30 10 1 10 11
M  V30 END BOND
M  V30 END CTAB
M  END
>  <Molecule Name>
(z)-2-undecene

>  <Molecule Name 2>
(z)-2-undecene

>  <Database>
Essential Oil Database

>  <InChI>
InChI=1S/C11H22/c1-3-5-7-9-11-10-8-6-4-2/h3,5H,4,6-11H2,1-2H3/b5-3-

>  <InChI-Key>
JOHIXGUTSXXADV-HYXAFXHYSA-N

>  <Smiles>
CCCCCCCC/C=C\C

>  <Molecular Formula>
C11H22

$$$$
(z)-6-methyl-3,5-heptadien-2-one
Actelion Java MolfileCreator 2.0

  0  0  0  0  0  0              0 V3000
M  V30 BEGIN CTAB
M  V30 COUNTS 9 8 0 0 0
M  V30 BEGIN ATOM
M  V30 1 O 0.0 0.0 0.0 0
M  V30 2 C 0.6903 1.3443 0.0 0
M  V30 3 C -0.0847 2.6886 0.0 0
M  V30 4 C 2.0951 1.4169 0.0 0
M  V30 5 C -1.6349 2.7612 0.0 0
M  V30 6 C -2.4221 1.5623 0.0 0
M  V30 7 C -3.9723 1.6349 0.0 0
M  V30 8 C -4.7596 0.4359 0.0 0
M  V30 9 C -4.7596 2.9792 0.0 0
M  V30 END ATOM
M  V30 BEGIN BOND
M  V30 1 2 1 2
M  V30 2 1 2 3
M  V30 3 1 2 4
M  V30 4 2 3 5
M  V30 5 1 5 6
M  V30 6 2 6 7
M  V30 7 1 7 8
M  V30 8 1 7 9
M  V30 END BOND
M  V30 END CTAB
M  END
>  <Molecule Name>
(z)-6-methyl-3,5-heptadien-2-one

>  <Molecule Name 2>
(z)-6-methyl-3,5-heptadien-2-one

>  <Database>
Essential Oil Database

>  <InChI>
InChI=1S/C8H12O/c1-7(2)5-4-6-8(3)9/h4-6H,1-3H3/b6-4-

>  <InChI-Key>
KSKXSFZGARKWOW-XQRVVYSFSA-N

>  <Smiles>
CC(C)=C/C=C\C(C)=O

>  <Molecular Formula>
C8H12O

$$$$
(z,z,z)-7,10,13-hexadecatrienal
Actelion Java MolfileCreator 2.0

  0  0  0  0  0  0              0 V3000
M  V30 BEGIN CTAB
M  V30 COUNTS 17 16 0 0 0
M  V30 BEGIN ATOM
M  V30 1 O 0.0 0.0 0.0 0
M  V30 2 C 1.2175 0.7993 0.0 0
M  V30 3 C 2.435 0.086 0.0 0
M  V30 4 C 3.6525 0.8854 0.0 0
M  V30 5 C 4.87 0.1721 0.0 0
M  V30 6 C 6.0875 0.9715 0.0 0
M  V30 7 C 7.305 0.2582 0.0 0
M  V30 8 C 8.5225 1.0576 0.0 0
M  V30 9 C 8.4487 2.6317 0.0 0
M  V30 10 C 7.0836 3.4311 0.0 0
M  V30 11 C 7.0098 5.0052 0.0 0
M  V30 12 C 5.6447 5.8046 0.0 0
M  V30 13 C 4.2797 5.1036 0.0 0
M  V30 14 C 2.9146 5.903 0.0 0
M  V30 15 C 1.5495 5.1897 0.0 0
M  V30 16 C 1.4757 3.7631 0.0 0
M  V30 17 C 0.1106 3.0499 0.0 0
M  V30 END ATOM
M  V30 BEGIN BOND
M  V30 1 2 1 2
M  V30 2 1 2 3
M  V30 3 1 3 4
M  V30 4 1 4 5
M  V30 5 1 5 6
M  V30 6 1 6 7
M  V30 7 1 7 8
M  V30 8 2 8 9
M  V30 9 1 9 10
M  V30 10 1 10 11
M  V30 11 2 11 12
M  V30 12 1 12 13
M  V30 13 1 13 14
M  V30 14 2 14 15
M  V30 15 1 15 16
M  V30 16 1 16 17
M  V30 END BOND
M  V30 END CTAB
M  END
>  <Molecule Name>
(z,z,z)-7,10,13-hexadecatrienal

>  <Molecule Name 2>
(z,z,z)-7,10,13-hexadecatrienal

>  <Database>
Essential Oil Database

>  <InChI>
InChI=1S/C16H26O/c1-2-3-4-5-6-7-8-9-10-11-12-13-14-15-16-17/h3-4,6-7,9-10,16H,2,5,8,11-15H2,1H3/b4-3-,7-6-,10-9-

>  <InChI-Key>
USMAGXMGZXKLHT-PDBXOOCHSA-N

>  <Smiles>
CC/C=C\C/C=C\C/C=C\CCCCCC=O

>  <Molecular Formula>
C16H26O

$$$$
phenyl ethyl butyrate
Actelion Java MolfileCreator 2.0

  0  0  0  0  0  0              0 V3000
M  V30 BEGIN CTAB
M  V30 COUNTS 14 14 0 0 0
M  V30 BEGIN ATOM
M  V30 1 O 0.0 0.0 0.0 0
M  V30 2 C -0.0725 -1.4029 0.0 0
M  V30 3 O 1.1247 -2.1044 0.0 0
M  V30 4 C -1.415 -2.1044 0.0 0
M  V30 5 C 2.3221 -1.3182 0.0 0
M  V30 6 C -2.7575 -1.3182 0.0 0
M  V30 7 C 3.5194 -2.0197 0.0 0
M  V30 8 C -4.1 -2.0197 0.0 0
M  V30 9 C -5.4424 -1.2215 0.0 0
M  V30 10 C -6.7849 -1.923 0.0 0
M  V30 11 C -5.515 0.3265 0.0 0
M  V30 12 C -8.1274 -1.1368 0.0 0
M  V30 13 C -6.8575 1.1126 0.0 0
M  V30 14 C -8.2 0.4112 0.0 0
M  V30 END ATOM
M  V30 BEGIN BOND
M  V30 1 2 1 2
M  V30 2 1 2 3
M  V30 3 1 2 4
M  V30 4 1 3 5
M  V30 5 1 4 6
M  V30 6 1 5 7
M  V30 7 1 6 8
M  V30 8 1 8 9
M  V30 9 2 9 10
M  V30 10 1 9 11
M  V30 11 1 10 12
M  V30 12 2 11 13
M  V30 13 2 12 14
M  V30 14 1 13 14
M  V30 END BOND
M  V30 END CTAB
M  END
>  <Molecule Name>
phenyl ethyl butyrate

>  <Molecule Name 2>
phenyl ethyl butyrate

>  <Database>
Essential Oil Database

>  <InChI>
InChI=1S/C12H16O2/c1-2-14-12(13)10-6-9-11-7-4-3-5-8-11/h3-5,7-8H,2,6,9-10H2,1H3

>  <InChI-Key>
GGFNXKFGVQQNRV-UHFFFAOYSA-N

>  <Smiles>
CCOC(CCCc1ccccc1)=O

>  <Molecular Formula>
C12H16O2

$$$$
geranyl tiglate
Actelion Java MolfileCreator 2.0

  0  0  0  0  0  0              0 V3000
M  V30 BEGIN CTAB
M  V30 COUNTS 17 16 0 0 0
M  V30 BEGIN ATOM
M  V30 1 O 0.0 0.0 0.0 0
M  V30 2 C 0.7026 -1.2203 0.0 0
M  V30 3 O -0.0862 -2.4406 0.0 0
M  V30 4 C 2.1325 -1.1463 0.0 0
M  V30 5 C -1.664 -2.3667 0.0 0
M  V30 6 C 2.8351 -2.3667 0.0 0
M  V30 7 C 2.8351 0.2218 0.0 0
M  V30 8 C -2.4653 -3.587 0.0 0
M  V30 9 C 4.265 -2.2927 0.0 0
M  V30 10 C -4.0431 -3.513 0.0 0
M  V30 11 C -4.8443 -4.7334 0.0 0
M  V30 12 C -4.8443 -2.1448 0.0 0
M  V30 13 C -6.4221 -4.6594 0.0 0
M  V30 14 C -7.2234 -5.8798 0.0 0
M  V30 15 C -8.8012 -5.8058 0.0 0
M  V30 16 C -9.6024 -7.0261 0.0 0
M  V30 17 C -9.6024 -4.4375 0.0 0
M  V30 END ATOM
M  V30 BEGIN BOND
M  V30 1 2 1 2
M  V30 2 1 2 3
M  V30 3 1 2 4
M  V30 4 1 3 5
M  V30 5 2 4 6
M  V30 6 1 4 7
M  V30 7 1 5 8
M  V30 8 1 6 9
M  V30 9 2 8 10
M  V30 10 1 10 11
M  V30 11 1 10 12
M  V30 12 1 11 13
M  V30 13 1 13 14
M  V30 14 2 14 15
M  V30 15 1 15 16
M  V30 16 1 15 17
M  V30 END BOND
M  V30 END CTAB
M  END
>  <Molecule Name>
geranyl tiglate

>  <Molecule Name 2>
geranyl tiglate

>  <Database>
Essential Oil Database

>  <InChI>
InChI=1S/C15H24O2/c1-6-14(5)15(16)17-11-10-13(4)9-7-8-12(2)3/h6,8,10H,7,9,11H2,1-5H3/b13-10+,14-6+

>  <InChI-Key>
OGHBUHJLMHQMHS-KRDNBFTESA-N

>  <Smiles>
C/C=C(\C)/C(OC/C=C(\C)/CCC=C(C)C)=O

>  <Molecular Formula>
C15H24O2

$$$$
guaia-6,9-diene
Actelion Java MolfileCreator 2.0

  0  0  0  0  0  0              0 V3000
M  V30 BEGIN CTAB
M  V30 COUNTS 15 16 0 0 0
M  V30 BEGIN ATOM
M  V30 1 C 0.0 0.0 0.0 0
M  V30 2 C -1.5036 -0.2646 0.0 0
M  V30 3 C 0.8179 -1.0585 0.0 0
M  V30 4 C 0.5894 1.3833 0.0 0
M  V30 5 C -2.7065 0.6976 0.0 0 CFG=2
M  V30 6 C 2.2012 -0.7578 0.0 0
M  V30 7 C 0.1924 -2.3456 0.0 0
M  V30 8 C -0.1443 2.7666 0.0 0
M  V30 9 C -2.7786 2.2373 0.0 0 CFG=2
M  V30 10 C -4.174 0.3007 0.0 0 CFG=2
M  V30 11 C -1.6479 3.1756 0.0 0
M  V30 12 C -4.2462 2.7786 0.0 0
M  V30 13 C -5.0882 1.5517 0.0 0
M  V30 14 C -4.7153 -1.0224 0.0 0
M  V30 15 C -2.0569 4.6792 0.0 0
M  V30 END ATOM
M  V30 BEGIN BOND
M  V30 1 2 1 2
M  V30 2 1 1 3
M  V30 3 1 1 4
M  V30 4 1 5 2 CFG=1
M  V30 5 1 3 6
M  V30 6 1 3 7
M  V30 7 1 4 8
M  V30 8 1 5 9
M  V30 9 1 5 10
M  V30 10 2 8 11
M  V30 11 1 9 12
M  V30 12 1 10 13
M  V30 13 1 10 14 CFG=1
M  V30 14 1 11 15
M  V30 15 1 9 11 CFG=1
M  V30 16 1 12 13
M  V30 END BOND
M  V30 BEGIN COLLECTION
M  V30 MDLV30/STERAC1 ATOMS=(3 5 9 10)
M  V30 END COLLECTION
M  V30 END CTAB
M  END
>  <Molecule Name>
guaia-6,9-diene

>  <Molecule Name 2>
guaia-6,9-diene

>  <Database>
Essential Oil Database

>  <InChI>
InChI=1S/C15H24/c1-10(2)13-7-5-11(3)14-8-6-12(4)15(14)9-13/h5,9-10,12,14-15H,6-8H2,1-4H3/t12-,14-,15-/m0/s1

>  <InChI-Key>
RCMUGHFHXFHKNW-QEJZJMRPSA-N

>  <Smiles>
CC(C)C1=C[C@@H]([C@@H](C)CC2)[C@@H]2C(C)=CC1

>  <Molecular Formula>
C15H24

$$$$
geranylvalerate
Actelion Java MolfileCreator 2.0

  0  0  0  0  0  0              0 V3000
M  V30 BEGIN CTAB
M  V30 COUNTS 17 16 0 0 0
M  V30 BEGIN ATOM
M  V30 1 O 0.0 0.0 0.0 0
M  V30 2 C -0.0701 -1.4733 0.0 0
M  V30 3 O -1.485 -2.1632 0.0 0 CHG=-1
M  V30 4 C 1.2043 -2.1632 0.0 0
M  V30 5 C 2.4789 -1.2862 0.0 0
M  V30 6 C 3.7534 -1.9761 0.0 0
M  V30 7 C 5.028 -1.0991 0.0 0
M  V30 8 C 6.3025 -1.8007 0.0 0
M  V30 9 C 7.5771 -0.9237 0.0 0
M  V30 10 C 8.8516 -1.637 0.0 0
M  V30 11 C 10.1262 -0.76 0.0 0
M  V30 12 C 8.7815 -3.1103 0.0 0
M  V30 13 C 11.4007 -1.4616 0.0 0
M  V30 14 C 12.6753 -0.5846 0.0 0
M  V30 15 C 13.9498 -1.2745 0.0 0
M  V30 16 C 15.2244 -0.3975 0.0 0
M  V30 17 C 13.8797 -2.7478 0.0 0
M  V30 END ATOM
M  V30 BEGIN BOND
M  V30 1 2 1 2
M  V30 2 1 2 3
M  V30 3 1 2 4
M  V30 4 1 4 5
M  V30 5 1 5 6
M  V30 6 1 6 7
M  V30 7 1 7 8
M  V30 8 1 8 9
M  V30 9 2 9 10
M  V30 10 1 10 11
M  V30 11 1 10 12
M  V30 12 1 11 13
M  V30 13 1 13 14
M  V30 14 2 14 15
M  V30 15 1 15 16
M  V30 16 1 15 17
M  V30 END BOND
M  V30 END CTAB
M  END
>  <Molecule Name>
geranylvalerate

>  <Molecule Name 2>
geranylvalerate

>  <Database>
Essential Oil Database

>  <InChI>
InChI=1S/C15H26O2/c1-13(2)9-8-11-14(3)10-6-4-5-7-12-15(16)17/h9-10H,4-8,11-12H2,1-3H3,(H,16,17)/p-1/b14-10+

>  <InChI-Key>
CGJURJULGIDEMG-GXDHUFHOSA-M

>  <Smiles>
CC(C)=CCC/C(\C)=C/CCCCCC([O-])=O

>  <Molecular Formula>
C15H25O2

$$$$
2-phenethyl benzoate
Actelion Java MolfileCreator 2.0

  0  0  0  0  0  0              0 V3000
M  V30 BEGIN CTAB
M  V30 COUNTS 17 18 0 0 0
M  V30 BEGIN ATOM
M  V30 1 O 0.0 0.0 0.0 0
M  V30 2 C -1.3827 -0.7225 0.0 0
M  V30 3 O -2.7655 0.0747 0.0 0 CHG=-1
M  V30 4 C -1.4575 -2.1676 0.0 0
M  V30 5 C -0.2242 -2.8901 0.0 0
M  V30 6 C -2.8403 -2.8901 0.0 0
M  V30 7 C -0.2989 -4.3352 0.0 0
M  V30 8 C 1.009 -2.0804 0.0 0
M  V30 9 C -2.915 -4.3352 0.0 0
M  V30 10 C -1.6817 -5.0453 0.0 0
M  V30 11 C 0.9343 -0.4858 0.0 0
M  V30 12 C 2.1676 0.3114 0.0 0
M  V30 13 C 2.0928 1.906 0.0 0
M  V30 14 C 3.4009 -0.3986 0.0 0
M  V30 15 C 3.3261 2.7157 0.0 0
M  V30 16 C 4.6342 0.3986 0.0 0
M  V30 17 C 4.5594 2.0056 0.0 0
M  V30 END ATOM
M  V30 BEGIN BOND
M  V30 1 2 1 2
M  V30 2 1 2 3
M  V30 3 1 2 4
M  V30 4 2 4 5
M  V30 5 1 4 6
M  V30 6 1 5 7
M  V30 7 1 5 8
M  V30 8 2 6 9
M  V30 9 2 7 10
M  V30 10 1 8 11
M  V30 11 1 11 12
M  V30 12 2 12 13
M  V30 13 1 12 14
M  V30 14 1 13 15
M  V30 15 2 14 16
M  V30 16 2 15 17
M  V30 17 1 9 10
M  V30 18 1 16 17
M  V30 END BOND
M  V30 END CTAB
M  END
>  <Molecule Name>
2-phenethyl benzoate

>  <Molecule Name 2>
2-phenethyl benzoate

>  <Database>
Essential Oil Database

>  <InChI>
InChI=1S/C15H14O2/c16-15(17)14-9-5-4-8-13(14)11-10-12-6-2-1-3-7-12/h1-9H,10-11H2,(H,16,17)/p-1

>  <InChI-Key>
IOHPVZBSOKLVMN-UHFFFAOYSA-M

>  <Smiles>
[O-]C(c1c(CCc2ccccc2)cccc1)=O

>  <Molecular Formula>
C15H13O2

$$$$
(z)-9-methyloctadecanoate
Actelion Java MolfileCreator 2.0

  0  0  0  0  0  0              0 V3000
M  V30 BEGIN CTAB
M  V30 COUNTS 21 20 0 0 0
M  V30 BEGIN ATOM
M  V30 1 O 0.0 0.0 0.0 0
M  V30 2 C 1.2636 0.8296 0.0 0
M  V30 3 O 1.187 2.4635 0.0 0 CHG=-1
M  V30 4 C 2.5273 0.1021 0.0 0
M  V30 5 C 3.791 0.9317 0.0 0
M  V30 6 C 5.0546 0.2042 0.0 0
M  V30 7 C 6.3183 1.0339 0.0 0
M  V30 8 C 7.582 0.3063 0.0 0
M  V30 9 C 8.8457 1.136 0.0 0
M  V30 10 C 10.1093 0.4084 0.0 0
M  V30 11 C 11.373 1.2381 0.0 0 CFG=2
M  V30 12 C 12.6367 0.5105 0.0 0
M  V30 13 C 11.2964 2.8719 0.0 0
M  V30 14 C 13.9003 1.3402 0.0 0
M  V30 15 C 15.164 0.6126 0.0 0
M  V30 16 C 16.4277 1.4423 0.0 0
M  V30 17 C 17.6914 0.7148 0.0 0
M  V30 18 C 18.955 1.5444 0.0 0
M  V30 19 C 20.2187 0.8169 0.0 0
M  V30 20 C 21.4824 1.6466 0.0 0
M  V30 21 C 22.746 0.919 0.0 0
M  V30 END ATOM
M  V30 BEGIN BOND
M  V30 1 2 1 2
M  V30 2 1 2 3
M  V30 3 1 2 4
M  V30 4 1 4 5
M  V30 5 1 5 6
M  V30 6 1 6 7
M  V30 7 1 7 8
M  V30 8 1 8 9
M  V30 9 1 9 10
M  V30 10 1 10 11
M  V30 11 1 11 12
M  V30 12 1 11 13 CFG=1
M  V30 13 1 12 14
M  V30 14 1 14 15
M  V30 15 1 15 16
M  V30 16 1 16 17
M  V30 17 1 17 18
M  V30 18 1 18 19
M  V30 19 1 19 20
M  V30 20 1 20 21
M  V30 END BOND
M  V30 BEGIN COLLECTION
M  V30 MDLV30/STERAC1 ATOMS=(1 11)
M  V30 END COLLECTION
M  V30 END CTAB
M  END
>  <Molecule Name>
(z)-9-methyloctadecanoate

>  <Molecule Name 2>
(z)-9-methyloctadecanoate

>  <Database>
Essential Oil Database

>  <InChI>
InChI=1S/C19H38O2/c1-3-4-5-6-7-9-12-15-18(2)16-13-10-8-11-14-17-19(20)21/h18H,3-17H2,1-2H3,(H,20,21)/p-1/t18-/m0/s1

>  <InChI-Key>
FUDUTAVRRCALAT-SFHVURJKSA-M

>  <Smiles>
CCCCCCCCCC(C)CCCCCCCC([O-])=O

>  <Molecular Formula>
C19H37O2

$$$$
p-menth-4-en-3-one
Actelion Java MolfileCreator 2.0

  0  0  0  0  0  0              0 V3000
M  V30 BEGIN CTAB
M  V30 COUNTS 11 11 0 0 0
M  V30 BEGIN ATOM
M  V30 1 O 0.0 0.0 0.0 0
M  V30 2 C 1.2324 0.8092 0.0 0
M  V30 3 C 2.4649 0.0995 0.0 0
M  V30 4 C 1.1577 2.4027 0.0 0
M  V30 5 C 3.6974 0.9087 0.0 0
M  V30 6 C 2.3902 -1.3445 0.0 0
M  V30 7 C 2.3902 3.2243 0.0 0 CFG=2
M  V30 8 C 3.6227 2.5023 0.0 0
M  V30 9 C 3.6227 -2.0665 0.0 0
M  V30 10 C 1.0083 -2.0665 0.0 0
M  V30 11 C 2.3155 4.8178 0.0 0
M  V30 END ATOM
M  V30 BEGIN BOND
M  V30 1 2 1 2
M  V30 2 1 2 3
M  V30 3 1 2 4
M  V30 4 2 3 5
M  V30 5 1 3 6
M  V30 6 1 4 7
M  V30 7 1 5 8
M  V30 8 1 6 9
M  V30 9 1 6 10
M  V30 10 1 7 11 CFG=1
M  V30 11 1 7 8
M  V30 END BOND
M  V30 BEGIN COLLECTION
M  V30 MDLV30/STERAC1 ATOMS=(1 7)
M  V30 END COLLECTION
M  V30 END CTAB
M  END
>  <Molecule Name>
p-menth-4-en-3-one

>  <Molecule Name 2>
p-menth-4-en-3-one

>  <Database>
Essential Oil Database

>  <InChI>
InChI=1S/C10H16O/c1-7(2)9-5-4-8(3)6-10(9)11/h5,7-8H,4,6H2,1-3H3/t8-/m0/s1

>  <InChI-Key>
OAYBZGPDRAMDNF-QMMMGPOBSA-N

>  <Smiles>
CC(C)C1=CCC(C)CC1=O

>  <Molecular Formula>
C10H16O

$$$$
1,2,3,4-Tetrahydro-1,5,7-trimethyl naphthalene
Actelion Java MolfileCreator 2.0

  0  0  0  0  0  0              0 V3000
M  V30 BEGIN CTAB
M  V30 COUNTS 13 14 0 0 0
M  V30 BEGIN ATOM
M  V30 1 C 0.0 0.0 0.0 0
M  V30 2 C -0.0728 1.555 0.0 0
M  V30 3 C -1.3484 -0.7046 0.0 0
M  V30 4 C 1.2026 -0.7046 0.0 0 CFG=2
M  V30 5 C -1.4213 2.3446 0.0 0
M  V30 6 C 1.1298 2.3446 0.0 0
M  V30 7 C -2.6969 0.085 0.0 0
M  V30 8 C 2.4053 0.085 0.0 0
M  V30 9 C 1.1298 -2.1138 0.0 0
M  V30 10 C -2.7698 1.6521 0.0 0
M  V30 11 C -1.4942 3.8996 0.0 0
M  V30 12 C 2.3325 1.6521 0.0 0
M  V30 13 C -4.0454 -0.6074 0.0 0
M  V30 END ATOM
M  V30 BEGIN BOND
M  V30 1 2 1 2
M  V30 2 1 1 3
M  V30 3 1 1 4
M  V30 4 1 2 5
M  V30 5 1 2 6
M  V30 6 2 3 7
M  V30 7 1 4 8
M  V30 8 1 4 9 CFG=3
M  V30 9 2 5 10
M  V30 10 1 5 11
M  V30 11 1 6 12
M  V30 12 1 7 13
M  V30 13 1 7 10
M  V30 14 1 8 12
M  V30 END BOND
M  V30 BEGIN COLLECTION
M  V30 MDLV30/STERAC1 ATOMS=(1 4)
M  V30 END COLLECTION
M  V30 END CTAB
M  END
>  <Molecule Name>
1,2,3,4-Tetrahydro-1,5,7-trimethyl naphthalene

>  <Molecule Name 2>
1,2,3,4-Tetrahydro-1,5,7-trimethyl naphthalene

>  <Database>
Essential Oil Database

>  <InChI>
InChI=1S/C13H18/c1-9-7-11(3)12-6-4-5-10(2)13(12)8-9/h7-8,10H,4-6H2,1-3H3/t10-/m0/s1

>  <InChI-Key>
VJFBUCVRMBYHAH-JTQLQIEISA-N

>  <Smiles>
CC(CCC1)c2c1c(C)cc(C)c2

>  <Molecular Formula>
C13H18

$$$$
4-(4-methylphenyl)-pentanal
Actelion Java MolfileCreator 2.0

  0  0  0  0  0  0              0 V3000
M  V30 BEGIN CTAB
M  V30 COUNTS 13 13 0 0 0
M  V30 BEGIN ATOM
M  V30 1 O 0.0 0.0 0.0 0
M  V30 2 C 1.2747 -0.7446 0.0 0
M  V30 3 C 2.5494 0.0757 0.0 0
M  V30 4 C 3.8242 -0.6689 0.0 0
M  V30 5 C 5.0989 0.1514 0.0 0 CFG=1
M  V30 6 C 6.3736 -0.5931 0.0 0
M  V30 7 C 5.0358 1.7669 0.0 0
M  V30 8 C 7.6484 0.2271 0.0 0
M  V30 9 C 6.3105 -2.0824 0.0 0
M  V30 10 C 8.9231 -0.5174 0.0 0
M  V30 11 C 7.5853 -2.8145 0.0 0
M  V30 12 C 8.86 -2.0067 0.0 0
M  V30 13 C 10.1348 -2.7387 0.0 0
M  V30 END ATOM
M  V30 BEGIN BOND
M  V30 1 2 1 2
M  V30 2 1 2 3
M  V30 3 1 3 4
M  V30 4 1 4 5
M  V30 5 1 5 6
M  V30 6 1 5 7 CFG=3
M  V30 7 2 6 8
M  V30 8 1 6 9
M  V30 9 1 8 10
M  V30 10 2 9 11
M  V30 11 2 10 12
M  V30 12 1 12 13
M  V30 13 1 11 12
M  V30 END BOND
M  V30 BEGIN COLLECTION
M  V30 MDLV30/STERAC1 ATOMS=(1 5)
M  V30 END COLLECTION
M  V30 END CTAB
M  END
>  <Molecule Name>
4-(4-methylphenyl)-pentanal

>  <Molecule Name 2>
4-(4-methylphenyl)-pentanal

>  <Database>
Essential Oil Database

>  <InChI>
InChI=1S/C12H16O/c1-10-5-7-12(8-6-10)11(2)4-3-9-13/h5-9,11H,3-4H2,1-2H3/t11-/m0/s1

>  <InChI-Key>
XPYKOJLMORBJQP-NSHDSACASA-N

>  <Smiles>
CC(CCC=O)c1ccc(C)cc1

>  <Molecular Formula>
C12H16O

$$$$
6-methyl-3-hepten-2-one
Actelion Java MolfileCreator 2.0

  0  0  0  0  0  0              0 V3000
M  V30 BEGIN CTAB
M  V30 COUNTS 9 8 0 0 0
M  V30 BEGIN ATOM
M  V30 1 O 0.0 0.0 0.0 0
M  V30 2 C 0.7111 -1.2384 0.0 0
M  V30 3 C -0.0735 -2.4768 0.0 0
M  V30 4 C 2.158 -1.1771 0.0 0
M  V30 5 C -1.643 -2.4155 0.0 0
M  V30 6 C -2.4278 -3.654 0.0 0
M  V30 7 C -3.9973 -3.5927 0.0 0
M  V30 8 C -4.7943 -4.8311 0.0 0
M  V30 9 C -4.7943 -2.2316 0.0 0
M  V30 END ATOM
M  V30 BEGIN BOND
M  V30 1 2 1 2
M  V30 2 1 2 3
M  V30 3 1 2 4
M  V30 4 2 3 5
M  V30 5 1 5 6
M  V30 6 1 6 7
M  V30 7 1 7 8
M  V30 8 1 7 9
M  V30 END BOND
M  V30 END CTAB
M  END
>  <Molecule Name>
6-methyl-3-hepten-2-one

>  <Molecule Name 2>
6-methyl-3-hepten-2-one

>  <Database>
Essential Oil Database

>  <InChI>
InChI=1S/C8H14O/c1-7(2)5-4-6-8(3)9/h4,6-7H,5H2,1-3H3/b6-4+

>  <InChI-Key>
RSNMTAYSENLHOW-GQCTYLIASA-N

>  <Smiles>
CC(C)C/C=C/C(C)=O

>  <Molecular Formula>
C8H14O

$$$$
amorpha-4,11-diene
Actelion Java MolfileCreator 2.0

  0  0  0  0  0  0              0 V3000
M  V30 BEGIN CTAB
M  V30 COUNTS 15 16 0 0 0
M  V30 BEGIN ATOM
M  V30 1 C 0.0 0.0 0.0 0
M  V30 2 C -1.3408 0.7851 0.0 0
M  V30 3 C -0.0603 -1.4254 0.0 0
M  V30 4 C 1.22 0.7851 0.0 0
M  V30 5 C -2.6816 0.0845 0.0 0 CFG=2
M  V30 6 C -1.4012 -2.1381 0.0 0
M  V30 7 C -4.0225 0.8697 0.0 0 CFG=2
M  V30 8 C -2.742 -1.3408 0.0 0 CFG=1
M  V30 9 C -4.0829 2.4159 0.0 0
M  V30 10 C -5.3633 0.1691 0.0 0
M  V30 11 C -4.0829 -2.0535 0.0 0 CFG=1
M  V30 12 C -5.4237 3.2011 0.0 0
M  V30 13 C -2.8628 3.2011 0.0 0
M  V30 14 C -5.4237 -1.2562 0.0 0
M  V30 15 C -4.1433 -3.4789 0.0 0
M  V30 END ATOM
M  V30 BEGIN BOND
M  V30 1 2 1 2
M  V30 2 1 1 3
M  V30 3 1 1 4
M  V30 4 1 5 2 CFG=1
M  V30 5 1 3 6
M  V30 6 1 5 7
M  V30 7 1 5 8
M  V30 8 1 7 9 CFG=1
M  V30 9 1 7 10
M  V30 10 1 8 11
M  V30 11 2 9 12
M  V30 12 1 9 13
M  V30 13 1 10 14
M  V30 14 1 11 15 CFG=3
M  V30 15 1 8 6 CFG=1
M  V30 16 1 11 14
M  V30 END BOND
M  V30 BEGIN COLLECTION
M  V30 MDLV30/STERAC1 ATOMS=(4 5 7 8 11)
M  V30 END COLLECTION
M  V30 END CTAB
M  END
>  <Molecule Name>
amorpha-4,11-diene

>  <Molecule Name 2>
amorpha-4,11-diene

>  <Database>
Essential Oil Database

>  <InChI>
InChI=1S/C15H24/c1-10(2)13-8-6-12(4)14-7-5-11(3)9-15(13)14/h9,12-15H,1,5-8H2,2-4H3/t12-,13+,14+,15-/m1/s1

>  <InChI-Key>
HMTAHNDPLDKYJT-CBBWQLFWSA-N

>  <Smiles>
C[C@H](CC[C@H]1C(C)=C)[C@H]2[C@@H]1C=C(C)CC2

>  <Molecular Formula>
C15H24

$$$$
beta-santalol
Actelion Java MolfileCreator 2.0

  0  0  0  0  0  0              0 V3000
M  V30 BEGIN CTAB
M  V30 COUNTS 16 17 0 0 0
M  V30 BEGIN ATOM
M  V30 1 O 0.0 0.0 0.0 0
M  V30 2 C 1.4086 0.3278 0.0 0
M  V30 3 C 2.2951 -0.7407 0.0 0
M  V30 4 C 3.7037 -0.4128 0.0 0
M  V30 5 C 1.7122 -2.0765 0.0 0
M  V30 6 C 4.1651 1.0443 0.0 0
M  V30 7 C 3.1572 2.2343 0.0 0
M  V30 8 C 3.6187 3.6915 0.0 0 CFG=2
M  V30 9 C 3.558 5.2459 0.0 0
M  V30 10 C 4.8452 2.9872 0.0 0 CFG=1
M  V30 11 C 2.0886 4.0194 0.0 0
M  V30 12 C 2.2101 6.0352 0.0 0
M  V30 13 C 4.7845 6.0352 0.0 0 CFG=2
M  V30 14 C 4.3959 4.5416 0.0 0
M  V30 15 C 6.0717 3.7766 0.0 0
M  V30 16 C 6.0109 5.3309 0.0 0
M  V30 END ATOM
M  V30 BEGIN BOND
M  V30 1 1 1 2
M  V30 2 1 2 3
M  V30 3 2 3 4
M  V30 4 1 3 5
M  V30 5 1 4 6
M  V30 6 1 6 7
M  V30 7 1 7 8
M  V30 8 1 8 9
M  V30 9 1 8 10
M  V30 10 1 8 11 CFG=1
M  V30 11 2 9 12
M  V30 12 1 9 13
M  V30 13 1 10 14 CFG=3
M  V30 14 1 10 15
M  V30 15 1 13 16 CFG=1
M  V30 16 1 13 14
M  V30 17 1 15 16
M  V30 END BOND
M  V30 BEGIN COLLECTION
M  V30 MDLV30/STERAC1 ATOMS=(3 8 10 13)
M  V30 END COLLECTION
M  V30 END CTAB
M  END
>  <Molecule Name>
beta-santalol

>  <Molecule Name 2>
beta-santalol

>  <Database>
Essential Oil Database

>  <InChI>
InChI=1S/C15H24O/c1-11(10-16)5-4-8-15(3)12(2)13-6-7-14(15)9-13/h5,13-14,16H,2,4,6-10H2,1,3H3/b11-5-/t13-,14+,15+/m0/s1

>  <InChI-Key>
OJYKYCDSGQGTRJ-GMRLKCGNSA-N

>  <Smiles>
C[C@](CC/C=C(/C)\CO)([C@H]1C[C@@H]2CC1)C2=C

>  <Molecular Formula>
C15H24O

$$$$
1,2-benzothiazole
Actelion Java MolfileCreator 2.0

  0  0  0  0  0  0              0 V3000
M  V30 BEGIN CTAB
M  V30 COUNTS 9 10 0 0 0
M  V30 BEGIN ATOM
M  V30 1 S 0.0 0.0 0.0 0
M  V30 2 N -0.9316 1.2749 0.0 0
M  V30 3 C 1.373 0.5393 0.0 0
M  V30 4 C -0.1225 2.5498 0.0 0
M  V30 5 C 1.3117 2.1085 0.0 0
M  V30 6 C 2.6111 -0.1716 0.0 0
M  V30 7 C 2.5498 2.9054 0.0 0
M  V30 8 C 3.8493 0.6252 0.0 0
M  V30 9 C 3.788 2.1821 0.0 0
M  V30 END ATOM
M  V30 BEGIN BOND
M  V30 1 1 1 2
M  V30 2 1 1 3
M  V30 3 2 2 4
M  V30 4 2 3 5
M  V30 5 1 3 6
M  V30 6 1 5 7
M  V30 7 2 6 8
M  V30 8 2 7 9
M  V30 9 1 4 5
M  V30 10 1 8 9
M  V30 END BOND
M  V30 END CTAB
M  END
>  <Molecule Name>
1,2-benzothiazole

>  <Molecule Name 2>
1,2-benzothiazole

>  <Database>
Essential Oil Database

>  <InChI>
InChI=1S/C7H5NS/c1-2-4-7-6(3-1)5-8-9-7/h1-5H

>  <InChI-Key>
CSNIZNHTOVFARY-UHFFFAOYSA-N

>  <Smiles>
c1n[s]c2c1cccc2

>  <Molecular Formula>
C7H5NS

$$$$
2,2-dimethylpropanal
Actelion Java MolfileCreator 2.0

  0  0  0  0  0  0              0 V3000
M  V30 BEGIN CTAB
M  V30 COUNTS 6 5 0 0 0
M  V30 BEGIN ATOM
M  V30 1 O 0.0 0.0 0.0 0
M  V30 2 C 1.2648 -0.7263 0.0 0
M  V30 3 C 1.2022 -2.204 0.0 0
M  V30 4 C 1.1396 -3.6818 0.0 0
M  V30 5 C 2.6799 -2.1414 0.0 0
M  V30 6 C -0.4007 -2.1414 0.0 0
M  V30 END ATOM
M  V30 BEGIN BOND
M  V30 1 2 1 2
M  V30 2 1 2 3
M  V30 3 1 3 4
M  V30 4 1 3 5
M  V30 5 1 3 6
M  V30 END BOND
M  V30 END CTAB
M  END
>  <Molecule Name>
2,2-dimethylpropanal

>  <Molecule Name 2>
2,2-dimethylpropanal

>  <Database>
Essential Oil Database

>  <InChI>
InChI=1S/C5H10O/c1-5(2,3)4-6/h4H,1-3H3

>  <InChI-Key>
FJJYHTVHBVXEEQ-UHFFFAOYSA-N

>  <Smiles>
CC(C)(C)C=O

>  <Molecular Formula>
C5H10O

$$$$
3-ethylphenol
Actelion Java MolfileCreator 2.0

  0  0  0  0  0  0              0 V3000
M  V30 BEGIN CTAB
M  V30 COUNTS 9 9 0 0 0
M  V30 BEGIN ATOM
M  V30 1 O 0.0 0.0 0.0 0
M  V30 2 C -0.0589 -1.4867 0.0 0
M  V30 3 C 1.2271 -2.1711 0.0 0
M  V30 4 C -1.4631 -2.1711 0.0 0
M  V30 5 C 1.1681 -3.6578 0.0 0
M  V30 6 C -1.5221 -3.6578 0.0 0
M  V30 7 C -0.2359 -4.3422 0.0 0
M  V30 8 C 2.4543 -4.3422 0.0 0
M  V30 9 C 3.7404 -3.4926 0.0 0
M  V30 END ATOM
M  V30 BEGIN BOND
M  V30 1 1 1 2
M  V30 2 2 2 3
M  V30 3 1 2 4
M  V30 4 1 3 5
M  V30 5 2 4 6
M  V30 6 2 5 7
M  V30 7 1 5 8
M  V30 8 1 8 9
M  V30 9 1 6 7
M  V30 END BOND
M  V30 END CTAB
M  END
>  <Molecule Name>
3-ethylphenol

>  <Molecule Name 2>
3-ethylphenol

>  <Database>
Essential Oil Database

>  <InChI>
InChI=1S/C8H10O/c1-2-7-4-3-5-8(9)6-7/h3-6,9H,2H2,1H3

>  <InChI-Key>
HMNKTRSOROOSPP-UHFFFAOYSA-N

>  <Smiles>
CCc1cccc(O)c1

>  <Molecular Formula>
C8H10O

$$$$
dihydro-3,5-dimethyl-2(3h)-furanone
Actelion Java MolfileCreator 2.0

  0  0  0  0  0  0              0 V3000
M  V30 BEGIN CTAB
M  V30 COUNTS 8 8 0 0 0
M  V30 BEGIN ATOM
M  V30 1 O 0.0 0.0 0.0 0
M  V30 2 C -0.8982 1.2291 0.0 0
M  V30 3 O -0.4963 2.671 0.0 0
M  V30 4 C -2.411 1.2882 0.0 0
M  V30 5 C -1.7255 3.5693 0.0 0
M  V30 6 C -2.9311 2.7301 0.0 0
M  V30 7 C -3.3093 0.1772 0.0 0
M  V30 8 C -1.7846 5.0821 0.0 0
M  V30 END ATOM
M  V30 BEGIN BOND
M  V30 1 2 1 2
M  V30 2 1 2 3
M  V30 3 1 2 4
M  V30 4 1 3 5
M  V30 5 1 4 6
M  V30 6 1 4 7
M  V30 7 1 5 8
M  V30 8 1 5 6
M  V30 END BOND
M  V30 END CTAB
M  END
>  <Molecule Name>
dihydro-3,5-dimethyl-2(3h)-furanone

>  <Molecule Name 2>
dihydro-3,5-dimethyl-2(3h)-furanone

>  <Database>
Essential Oil Database

>  <InChI>
InChI=1S/C6H10O2/c1-4-3-5(2)8-6(4)7/h4-5H,3H2,1-2H3

>  <InChI-Key>
IYJMJJJBGWGVKX-UHFFFAOYSA-N

>  <Smiles>
CC(CC(C)O1)C1=O

>  <Molecular Formula>
C6H10O2

$$$$
2,5-diethylpyrazine
Actelion Java MolfileCreator 2.0

  0  0  0  0  0  0              0 V3000
M  V30 BEGIN CTAB
M  V30 COUNTS 10 10 0 0 0
M  V30 BEGIN ATOM
M  V30 1 N 0.0 0.0 0.0 0
M  V30 2 C 1.2318 -0.7074 0.0 0
M  V30 3 C -0.0609 1.5611 0.0 0
M  V30 4 C 2.4637 0.0731 0.0 0
M  V30 5 C 1.1708 -2.1465 0.0 0
M  V30 6 C 1.1708 2.3539 0.0 0
M  V30 7 N 2.4027 1.6343 0.0 0
M  V30 8 C -0.1829 -2.8661 0.0 0
M  V30 9 C 1.1098 3.9151 0.0 0
M  V30 10 C -0.2439 4.7078 0.0 0
M  V30 END ATOM
M  V30 BEGIN BOND
M  V30 1 2 1 2
M  V30 2 1 1 3
M  V30 3 1 2 4
M  V30 4 1 2 5
M  V30 5 2 3 6
M  V30 6 2 4 7
M  V30 7 1 5 8
M  V30 8 1 6 9
M  V30 9 1 9 10
M  V30 10 1 6 7
M  V30 END BOND
M  V30 END CTAB
M  END
>  <Molecule Name>
2,5-diethylpyrazine

>  <Molecule Name 2>
2,5-diethylpyrazine

>  <Database>
Essential Oil Database

>  <InChI>
InChI=1S/C8H12N2/c1-3-7-5-10-8(4-2)6-9-7/h5-6H,3-4H2,1-2H3

>  <InChI-Key>
WAVOLMBVDCRBGR-UHFFFAOYSA-N

>  <Smiles>
CCc1cnc(CC)cn1

>  <Molecular Formula>
C8H12N2

$$$$
2-acetyl-3-ethylpyrazine
Actelion Java MolfileCreator 2.0

  0  0  0  0  0  0              0 V3000
M  V30 BEGIN CTAB
M  V30 COUNTS 11 11 0 0 0
M  V30 BEGIN ATOM
M  V30 1 O 0.0 0.0 0.0 0
M  V30 2 C -1.3251 0.764 0.0 0
M  V30 3 C -2.6502 0.0716 0.0 0
M  V30 4 C -1.3848 2.292 0.0 0
M  V30 5 N -2.7099 -1.337 0.0 0
M  V30 6 C -3.9753 0.8475 0.0 0
M  V30 7 C -4.035 -2.0294 0.0 0
M  V30 8 N -5.3004 0.1551 0.0 0
M  V30 9 C -4.035 2.3756 0.0 0
M  V30 10 C -5.3601 -1.2534 0.0 0
M  V30 11 C -5.3601 3.1516 0.0 0
M  V30 END ATOM
M  V30 BEGIN BOND
M  V30 1 2 1 2
M  V30 2 1 2 3
M  V30 3 1 2 4
M  V30 4 2 3 5
M  V30 5 1 3 6
M  V30 6 1 5 7
M  V30 7 2 6 8
M  V30 8 1 6 9
M  V30 9 2 7 10
M  V30 10 1 9 11
M  V30 11 1 8 10
M  V30 END BOND
M  V30 END CTAB
M  END
>  <Molecule Name>
2-acetyl-3-ethylpyrazine

>  <Molecule Name 2>
2-acetyl-3-ethylpyrazine

>  <Database>
Essential Oil Database

>  <InChI>
InChI=1S/C8H10N2O/c1-3-7-8(6(2)11)10-5-4-9-7/h4-5H,3H2,1-2H3

>  <InChI-Key>
PPJSYGVFDJEMRP-UHFFFAOYSA-N

>  <Smiles>
CCc1nccnc1C(C)=O

>  <Molecular Formula>
C8H10N2O

$$$$
2-ethyl-5-methylpyrazine
Actelion Java MolfileCreator 2.0

  0  0  0  0  0  0              0 V3000
M  V30 BEGIN CTAB
M  V30 COUNTS 9 9 0 0 0
M  V30 BEGIN ATOM
M  V30 1 N 0.0 0.0 0.0 0
M  V30 2 C 1.248 -0.7167 0.0 0
M  V30 3 C -0.0617 1.5817 0.0 0
M  V30 4 C 2.4961 0.0741 0.0 0
M  V30 5 C 1.1862 -2.1748 0.0 0
M  V30 6 C 1.1862 2.3849 0.0 0
M  V30 7 N 2.4343 1.6558 0.0 0
M  V30 8 C 2.4343 -2.9039 0.0 0
M  V30 9 C 1.1244 3.9666 0.0 0
M  V30 END ATOM
M  V30 BEGIN BOND
M  V30 1 2 1 2
M  V30 2 1 1 3
M  V30 3 1 2 4
M  V30 4 1 2 5
M  V30 5 2 3 6
M  V30 6 2 4 7
M  V30 7 1 5 8
M  V30 8 1 6 9
M  V30 9 1 6 7
M  V30 END BOND
M  V30 END CTAB
M  END
>  <Molecule Name>
2-ethyl-5-methylpyrazine

>  <Molecule Name 2>
2-ethyl-5-methylpyrazine

>  <Database>
Essential Oil Database

>  <InChI>
InChI=1S/C7H10N2/c1-3-7-5-8-6(2)4-9-7/h4-5H,3H2,1-2H3

>  <InChI-Key>
OXCKCFJIKRGXMM-UHFFFAOYSA-N

>  <Smiles>
CCc1ncc(C)nc1

>  <Molecular Formula>
C7H10N2

$$$$
2-ethyl-6-methylpyrazine
Actelion Java MolfileCreator 2.0

  0  0  0  0  0  0              0 V3000
M  V30 BEGIN CTAB
M  V30 COUNTS 9 9 0 0 0
M  V30 BEGIN ATOM
M  V30 1 N 0.0 0.0 0.0 0
M  V30 2 C -0.0625 -1.4766 0.0 0
M  V30 3 C 1.2638 0.8008 0.0 0
M  V30 4 C 1.2013 -2.2024 0.0 0
M  V30 5 C -1.4515 -2.2024 0.0 0
M  V30 6 C 2.5277 0.075 0.0 0
M  V30 7 C 1.2013 2.4026 0.0 0
M  V30 8 N 2.4652 -1.3765 0.0 0
M  V30 9 C -1.5141 -3.679 0.0 0
M  V30 END ATOM
M  V30 BEGIN BOND
M  V30 1 2 1 2
M  V30 2 1 1 3
M  V30 3 1 2 4
M  V30 4 1 2 5
M  V30 5 2 3 6
M  V30 6 1 3 7
M  V30 7 2 4 8
M  V30 8 1 5 9
M  V30 9 1 6 8
M  V30 END BOND
M  V30 END CTAB
M  END
>  <Molecule Name>
2-ethyl-6-methylpyrazine

>  <Molecule Name 2>
2-ethyl-6-methylpyrazine

>  <Database>
Essential Oil Database

>  <InChI>
InChI=1S/C7H10N2/c1-3-7-5-8-4-6(2)9-7/h4-5H,3H2,1-2H3

>  <InChI-Key>
RAFHQTNQEZECFL-UHFFFAOYSA-N

>  <Smiles>
CCc1nc(C)cnc1

>  <Molecular Formula>
C7H10N2

$$$$
5-methyl-2-thiophenecarboxaldehyde
Actelion Java MolfileCreator 2.0

  0  0  0  0  0  0              0 V3000
M  V30 BEGIN CTAB
M  V30 COUNTS 8 8 0 0 0
M  V30 BEGIN ATOM
M  V30 1 S 0.0 0.0 0.0 0
M  V30 2 C -0.5349 -1.3616 0.0 0
M  V30 3 C -1.2644 0.9239 0.0 0
M  V30 4 C -2.0911 -1.3008 0.0 0
M  V30 5 C 0.2674 -2.5045 0.0 0
M  V30 6 C -2.5288 0.1215 0.0 0
M  V30 7 C -1.3252 2.4801 0.0 0
M  V30 8 O -0.4255 -3.8054 0.0 0
M  V30 END ATOM
M  V30 BEGIN BOND
M  V30 1 1 1 2
M  V30 2 1 1 3
M  V30 3 2 2 4
M  V30 4 1 2 5
M  V30 5 2 3 6
M  V30 6 1 3 7
M  V30 7 2 5 8
M  V30 8 1 4 6
M  V30 END BOND
M  V30 END CTAB
M  END
>  <Molecule Name>
5-methyl-2-thiophenecarboxaldehyde

>  <Molecule Name 2>
5-methyl-2-thiophenecarboxaldehyde

>  <Database>
Essential Oil Database

>  <InChI>
InChI=1S/C6H6OS/c1-5-2-3-6(4-7)8-5/h2-4H,1H3

>  <InChI-Key>
VAUMDUIUEPIGHM-UHFFFAOYSA-N

>  <Smiles>
Cc1ccc(C=O)[s]1

>  <Molecular Formula>
C6H6OS

$$$$
2-methylbenzonitrite
Actelion Java MolfileCreator 2.0

  0  0  0  0  0  0              0 V3000
M  V30 BEGIN CTAB
M  V30 COUNTS 10 10 0 0 0
M  V30 BEGIN ATOM
M  V30 1 O 0.0 0.0 0.0 0
M  V30 2 N -1.3814 -0.6733 0.0 0 CHG=1
M  V30 3 O -2.7629 0.1625 0.0 0 CHG=-1
M  V30 4 C -1.4395 -2.136 0.0 0
M  V30 5 C -0.1741 -2.8093 0.0 0
M  V30 6 C -2.8209 -2.8093 0.0 0
M  V30 7 C -0.2321 -4.2721 0.0 0
M  V30 8 C 1.0912 -1.9735 0.0 0
M  V30 9 C -2.879 -4.2721 0.0 0
M  V30 10 C -1.6136 -4.9454 0.0 0
M  V30 END ATOM
M  V30 BEGIN BOND
M  V30 1 2 1 2
M  V30 2 1 2 3
M  V30 3 1 2 4
M  V30 4 2 4 5
M  V30 5 1 4 6
M  V30 6 1 5 7
M  V30 7 1 5 8
M  V30 8 2 6 9
M  V30 9 2 7 10
M  V30 10 1 9 10
M  V30 END BOND
M  V30 END CTAB
M  END
>  <Molecule Name>
2-methylbenzonitrite

>  <Molecule Name 2>
2-methylbenzonitrite

>  <Database>
Essential Oil Database

>  <InChI>
InChI=1S/C7H7NO2/c1-6-4-2-3-5-7(6)8(9)10/h2-5H,1H3

>  <InChI-Key>
PLAZTCDQAHEYBI-UHFFFAOYSA-N

>  <Smiles>
Cc(cccc1)c1[N+]([O-])=O

>  <Molecular Formula>
C7H7NO2

$$$$
3,3-dimethylhexanal
Actelion Java MolfileCreator 2.0

  0  0  0  0  0  0              0 V3000
M  V30 BEGIN CTAB
M  V30 COUNTS 9 8 0 0 0
M  V30 BEGIN ATOM
M  V30 1 O 0.0 0.0 0.0 0
M  V30 2 C -0.0619 -1.4611 0.0 0
M  V30 3 C -1.4363 -2.1793 0.0 0
M  V30 4 C -1.4982 -3.6404 0.0 0
M  V30 5 C -1.5601 -5.1016 0.0 0
M  V30 6 C -0.0371 -3.5785 0.0 0
M  V30 7 C -3.0832 -3.5785 0.0 0
M  V30 8 C -2.9346 -5.8197 0.0 0
M  V30 9 C -2.9965 -7.2809 0.0 0
M  V30 END ATOM
M  V30 BEGIN BOND
M  V30 1 2 1 2
M  V30 2 1 2 3
M  V30 3 1 3 4
M  V30 4 1 4 5
M  V30 5 1 4 6
M  V30 6 1 4 7
M  V30 7 1 5 8
M  V30 8 1 8 9
M  V30 END BOND
M  V30 END CTAB
M  END
>  <Molecule Name>
3,3-dimethylhexanal

>  <Molecule Name 2>
3,3-dimethylhexanal

>  <Database>
Essential Oil Database

>  <InChI>
InChI=1S/C8H16O/c1-4-5-8(2,3)6-7-9/h7H,4-6H2,1-3H3

>  <InChI-Key>
IHEORNQYISDNQZ-UHFFFAOYSA-N

>  <Smiles>
CCCC(C)(C)CC=O

>  <Molecular Formula>
C8H16O

$$$$
3,4-dihydro-8-hydroxy-3-methyl-1h-2-benzopyran-1-one
Actelion Java MolfileCreator 2.0

  0  0  0  0  0  0              0 V3000
M  V30 BEGIN CTAB
M  V30 COUNTS 13 14 0 0 0
M  V30 BEGIN ATOM
M  V30 1 O 0.0 0.0 0.0 0
M  V30 2 C -0.0597 1.53 0.0 0
M  V30 3 O 1.1475 2.307 0.0 0
M  V30 4 C -1.3866 2.307 0.0 0
M  V30 5 C 1.0877 3.8371 0.0 0 CFG=2
M  V30 6 C -2.7135 1.6018 0.0 0
M  V30 7 C -1.4464 3.8371 0.0 0
M  V30 8 C -0.239 4.6141 0.0 0
M  V30 9 C 2.2951 4.6141 0.0 0
M  V30 10 O -2.7732 0.1912 0.0 0
M  V30 11 C -4.0403 2.3788 0.0 0
M  V30 12 C -2.7732 4.6141 0.0 0
M  V30 13 C -4.1001 3.9089 0.0 0
M  V30 END ATOM
M  V30 BEGIN BOND
M  V30 1 2 1 2
M  V30 2 1 2 3
M  V30 3 1 2 4
M  V30 4 1 3 5
M  V30 5 2 4 6
M  V30 6 1 4 7
M  V30 7 1 5 8
M  V30 8 1 5 9 CFG=3
M  V30 9 1 6 10
M  V30 10 1 6 11
M  V30 11 2 7 12
M  V30 12 2 11 13
M  V30 13 1 7 8
M  V30 14 1 12 13
M  V30 END BOND
M  V30 BEGIN COLLECTION
M  V30 MDLV30/STERAC1 ATOMS=(1 5)
M  V30 END COLLECTION
M  V30 END CTAB
M  END
>  <Molecule Name>
3,4-dihydro-8-hydroxy-3-methyl-1h-2-benzopyran-1-one

>  <Molecule Name 2>
3,4-dihydro-8-hydroxy-3-methyl-1h-2-benzopyran-1-one

>  <Database>
Essential Oil Database

>  <InChI>
InChI=1S/C10H10O3/c1-6-5-7-3-2-4-8(11)9(7)10(12)13-6/h2-4,6,11H,5H2,1H3/t6-/m0/s1

>  <InChI-Key>
KWILGNNWGSNMPA-LURJTMIESA-N

>  <Smiles>
CC(Cc1cccc(O)c11)OC1=O

>  <Molecular Formula>
C10H10O3

$$$$
amyl benzoate
Actelion Java MolfileCreator 2.0

  0  0  0  0  0  0              0 V3000
M  V30 BEGIN CTAB
M  V30 COUNTS 14 14 0 0 0
M  V30 BEGIN ATOM
M  V30 1 O 0.0 0.0 0.0 0
M  V30 2 C -0.0576 -1.452 0.0 0
M  V30 3 O 1.1985 -2.132 0.0 0
M  V30 4 C -1.429 -2.132 0.0 0
M  V30 5 C 2.4547 -1.2907 0.0 0
M  V30 6 C -1.4866 -3.5841 0.0 0
M  V30 7 C -2.8004 -1.2907 0.0 0
M  V30 8 C 3.7108 -1.9937 0.0 0
M  V30 9 C -2.858 -4.264 0.0 0
M  V30 10 C -4.1718 -1.9937 0.0 0
M  V30 11 C 4.967 -1.1524 0.0 0
M  V30 12 C -4.2294 -3.4227 0.0 0
M  V30 13 C 6.2232 -1.8554 0.0 0
M  V30 14 C 7.4794 -1.0141 0.0 0
M  V30 END ATOM
M  V30 BEGIN BOND
M  V30 1 2 1 2
M  V30 2 1 2 3
M  V30 3 1 2 4
M  V30 4 1 3 5
M  V30 5 2 4 6
M  V30 6 1 4 7
M  V30 7 1 5 8
M  V30 8 1 6 9
M  V30 9 2 7 10
M  V30 10 1 8 11
M  V30 11 2 9 12
M  V30 12 1 11 13
M  V30 13 1 13 14
M  V30 14 1 10 12
M  V30 END BOND
M  V30 END CTAB
M  END
>  <Molecule Name>
amyl benzoate

>  <Molecule Name 2>
amyl benzoate

>  <Database>
Essential Oil Database

>  <InChI>
InChI=1S/C12H16O2/c1-2-3-7-10-14-12(13)11-8-5-4-6-9-11/h4-6,8-9H,2-3,7,10H2,1H3

>  <InChI-Key>
QKNZNUNCDJZTCH-UHFFFAOYSA-N

>  <Smiles>
CCCCCOC(c1ccccc1)=O

>  <Molecular Formula>
C12H16O2

$$$$
ethylbenzoylacetate
Actelion Java MolfileCreator 2.0

  0  0  0  0  0  0              0 V3000
M  V30 BEGIN CTAB
M  V30 COUNTS 14 14 0 0 0
M  V30 BEGIN ATOM
M  V30 1 O 0.0 0.0 0.0 0
M  V30 2 C -1.3874 -0.6879 0.0 0
M  V30 3 O -2.7749 0.1632 0.0 0 CHG=-1
M  V30 4 C -1.4457 -2.1569 0.0 0 CFG=2
M  V30 5 C -0.1748 -2.8332 0.0 0
M  V30 6 C -2.8332 -2.8332 0.0 0
M  V30 7 O 1.0959 -1.9937 0.0 0
M  V30 8 C -0.2331 -4.3023 0.0 0
M  V30 9 C -2.8915 -4.3023 0.0 0
M  V30 10 C 1.0376 -4.9785 0.0 0
M  V30 11 C -1.6206 -4.9785 0.0 0
M  V30 12 C 0.9793 -6.4476 0.0 0
M  V30 13 C -1.6789 -6.4476 0.0 0
M  V30 14 C -0.408 -7.1239 0.0 0
M  V30 END ATOM
M  V30 BEGIN BOND
M  V30 1 2 1 2
M  V30 2 1 2 3
M  V30 3 1 2 4
M  V30 4 1 4 5
M  V30 5 1 4 6 CFG=3
M  V30 6 2 5 7
M  V30 7 1 5 8
M  V30 8 1 6 9
M  V30 9 2 8 10
M  V30 10 1 8 11
M  V30 11 1 10 12
M  V30 12 2 11 13
M  V30 13 2 12 14
M  V30 14 1 13 14
M  V30 END BOND
M  V30 BEGIN COLLECTION
M  V30 MDLV30/STERAC1 ATOMS=(1 4)
M  V30 END COLLECTION
M  V30 END CTAB
M  END
>  <Molecule Name>
ethylbenzoylacetate

>  <Molecule Name 2>
ethylbenzoylacetate

>  <Database>
Essential Oil Database

>  <InChI>
InChI=1S/C11H12O3/c1-2-9(11(13)14)10(12)8-6-4-3-5-7-8/h3-7,9H,2H2,1H3,(H,13,14)/p-1/t9-/m0/s1

>  <InChI-Key>
DIMRGVFIRSHSEE-VIFPVBQESA-M

>  <Smiles>
CCC(C(c1ccccc1)=O)C([O-])=O

>  <Molecular Formula>
C11H11O3

$$$$
ethyl phenyl propanoate
Actelion Java MolfileCreator 2.0

  0  0  0  0  0  0              0 V3000
M  V30 BEGIN CTAB
M  V30 COUNTS 13 13 0 0 0
M  V30 BEGIN ATOM
M  V30 1 O 0.0 0.0 0.0 0
M  V30 2 C -0.0615 1.5765 0.0 0
M  V30 3 O 1.1824 2.3771 0.0 0
M  V30 4 C -1.4287 2.3771 0.0 0
M  V30 5 C 2.4264 1.6504 0.0 0
M  V30 6 C -2.7959 1.6504 0.0 0
M  V30 7 C 3.6704 2.451 0.0 0
M  V30 8 C 2.3648 0.197 0.0 0
M  V30 9 C -4.1631 2.451 0.0 0
M  V30 10 C 4.9144 1.7243 0.0 0
M  V30 11 C 3.6088 -0.5173 0.0 0
M  V30 12 C -5.5303 1.7243 0.0 0
M  V30 13 C 4.8528 0.2709 0.0 0
M  V30 END ATOM
M  V30 BEGIN BOND
M  V30 1 2 1 2
M  V30 2 1 2 3
M  V30 3 1 2 4
M  V30 4 1 3 5
M  V30 5 1 4 6
M  V30 6 2 5 7
M  V30 7 1 5 8
M  V30 8 1 6 9
M  V30 9 1 7 10
M  V30 10 2 8 11
M  V30 11 1 9 12
M  V30 12 2 10 13
M  V30 13 1 11 13
M  V30 END BOND
M  V30 END CTAB
M  END
>  <Molecule Name>
ethyl phenyl propanoate

>  <Molecule Name 2>
ethyl phenyl propanoate

>  <Database>
Essential Oil Database

>  <InChI>
InChI=1S/C11H14O2/c1-2-3-9-11(12)13-10-7-5-4-6-8-10/h4-8H,2-3,9H2,1H3

>  <InChI-Key>
MVIMPQVBUPCHEV-UHFFFAOYSA-N

>  <Smiles>
CCCCC(Oc1ccccc1)=O

>  <Molecular Formula>
C11H14O2

$$$$
methanethiol
Actelion Java MolfileCreator 2.0

  0  0  0  0  0  0              0 V3000
M  V30 BEGIN CTAB
M  V30 COUNTS 2 1 0 0 0
M  V30 BEGIN ATOM
M  V30 1 S 0.0 0.0 0.0 0
M  V30 2 C 1.4988 0.0594 0.0 0
M  V30 END ATOM
M  V30 BEGIN BOND
M  V30 1 1 1 2
M  V30 END BOND
M  V30 END CTAB
M  END
>  <Molecule Name>
methanethiol

>  <Molecule Name 2>
methanethiol

>  <Database>
Essential Oil Database

>  <InChI>
InChI=1S/CH4S/c1-2/h2H,1H3

>  <InChI-Key>
LSDPWZHWYPCBBB-UHFFFAOYSA-N

>  <Smiles>
CS

>  <Molecular Formula>
CH4S

$$$$
(z)-9-octadecenamide
Actelion Java MolfileCreator 2.0

  0  0  0  0  0  0              0 V3000
M  V30 BEGIN CTAB
M  V30 COUNTS 20 19 0 0 0
M  V30 BEGIN ATOM
M  V30 1 O 0.0 0.0 0.0 0
M  V30 2 C 0.6738 1.3825 0.0 0
M  V30 3 N -0.1626 2.7651 0.0 0
M  V30 4 C 2.1377 1.4406 0.0 0
M  V30 5 C 2.8116 2.8232 0.0 0
M  V30 6 C 4.2755 2.8813 0.0 0
M  V30 7 C 4.9494 4.2639 0.0 0
M  V30 8 C 6.4133 4.322 0.0 0
M  V30 9 C 7.0872 3.0556 0.0 0
M  V30 10 C 6.2506 1.7892 0.0 0
M  V30 11 C 6.9245 0.5228 0.0 0
M  V30 12 C 8.3884 0.5809 0.0 0
M  V30 13 C 9.0739 1.9635 0.0 0
M  V30 14 C 10.5378 2.0215 0.0 0
M  V30 15 C 11.2117 3.4041 0.0 0
M  V30 16 C 12.6756 3.4622 0.0 0
M  V30 17 C 13.3611 4.8448 0.0 0
M  V30 18 C 14.825 4.9029 0.0 0
M  V30 19 C 15.4989 6.2855 0.0 0
M  V30 20 C 16.9628 6.3436 0.0 0
M  V30 END ATOM
M  V30 BEGIN BOND
M  V30 1 2 1 2
M  V30 2 1 2 3
M  V30 3 1 2 4
M  V30 4 1 4 5
M  V30 5 1 5 6
M  V30 6 1 6 7
M  V30 7 1 7 8
M  V30 8 1 8 9
M  V30 9 1 9 10
M  V30 10 1 10 11
M  V30 11 2 11 12
M  V30 12 1 12 13
M  V30 13 1 13 14
M  V30 14 1 14 15
M  V30 15 1 15 16
M  V30 16 1 16 17
M  V30 17 1 17 18
M  V30 18 1 18 19
M  V30 19 1 19 20
M  V30 END BOND
M  V30 END CTAB
M  END
>  <Molecule Name>
(z)-9-octadecenamide

>  <Molecule Name 2>
(z)-9-octadecenamide

>  <Database>
Essential Oil Database

>  <InChI>
InChI=1S/C18H35NO/c1-2-3-4-5-6-7-8-9-10-11-12-13-14-15-16-17-18(19)20/h9-10H,2-8,11-17H2,1H3,(H2,19,20)/b10-9-

>  <InChI-Key>
FATBGEAMYMYZAF-KTKRTIGZSA-N

>  <Smiles>
CCCCCCCC/C=C\CCCCCCCC(N)=O

>  <Molecular Formula>
C18H35NO

$$$$
p-menth-3-en-8-ol
Actelion Java MolfileCreator 2.0

  0  0  0  0  0  0              0 V3000
M  V30 BEGIN CTAB
M  V30 COUNTS 11 11 0 0 0
M  V30 BEGIN ATOM
M  V30 1 O 0.0 0.0 0.0 0
M  V30 2 C 1.4272 0.0604 0.0 0
M  V30 3 C 1.3667 1.6086 0.0 0
M  V30 4 C 1.3667 -1.3667 0.0 0
M  V30 5 C 2.8544 0.1209 0.0 0
M  V30 6 C 0.0241 2.3948 0.0 0
M  V30 7 C 2.5883 2.3948 0.0 0
M  V30 8 C -0.0362 3.943 0.0 0
M  V30 9 C 2.5278 3.943 0.0 0
M  V30 10 C 1.1853 4.7291 0.0 0 CFG=2
M  V30 11 C 1.1248 6.2773 0.0 0
M  V30 END ATOM
M  V30 BEGIN BOND
M  V30 1 1 1 2
M  V30 2 1 2 3
M  V30 3 1 2 4
M  V30 4 1 2 5
M  V30 5 2 3 6
M  V30 6 1 3 7
M  V30 7 1 6 8
M  V30 8 1 7 9
M  V30 9 1 8 10
M  V30 10 1 10 11 CFG=1
M  V30 11 1 9 10
M  V30 END BOND
M  V30 BEGIN COLLECTION
M  V30 MDLV30/STERAC1 ATOMS=(1 10)
M  V30 END COLLECTION
M  V30 END CTAB
M  END
>  <Molecule Name>
p-menth-3-en-8-ol

>  <Molecule Name 2>
p-menth-3-en-8-ol

>  <Database>
Essential Oil Database

>  <InChI>
InChI=1S/C10H18O/c1-8-4-6-9(7-5-8)10(2,3)11/h6,8,11H,4-5,7H2,1-3H3/t8-/m1/s1

>  <InChI-Key>
HMXMWOXFKFLOGK-MRVPVSSYSA-N

>  <Smiles>
CC(CC1)CC=C1C(C)(C)O

>  <Molecular Formula>
C10H18O

$$$$
1-acetyl-2-methylcyclopent-2-ene
Actelion Java MolfileCreator 2.0

  0  0  0  0  0  0              0 V3000
M  V30 BEGIN CTAB
M  V30 COUNTS 9 9 0 0 0
M  V30 BEGIN ATOM
M  V30 1 O 0.0 0.0 0.0 0
M  V30 2 C 1.2715 -0.6882 0.0 0
M  V30 3 C 1.2131 -2.158 0.0 0 CFG=1
M  V30 4 C 2.543 0.1516 0.0 0
M  V30 5 C 2.403 -3.0213 0.0 0
M  V30 6 C -0.0933 -3.0213 0.0 0
M  V30 7 C 1.8897 -4.4211 0.0 0
M  V30 8 C 3.8028 -2.508 0.0 0
M  V30 9 C 0.3032 -4.4211 0.0 0
M  V30 END ATOM
M  V30 BEGIN BOND
M  V30 1 2 1 2
M  V30 2 1 3 2 CFG=1
M  V30 3 1 2 4
M  V30 4 1 3 5
M  V30 5 1 3 6
M  V30 6 2 5 7
M  V30 7 1 5 8
M  V30 8 1 6 9
M  V30 9 1 7 9
M  V30 END BOND
M  V30 BEGIN COLLECTION
M  V30 MDLV30/STERAC1 ATOMS=(1 3)
M  V30 END COLLECTION
M  V30 END CTAB
M  END
>  <Molecule Name>
1-acetyl-2-methylcyclopent-2-ene

>  <Molecule Name 2>
1-acetyl-2-methylcyclopent-2-ene

>  <Database>
Essential Oil Database

>  <InChI>
InChI=1S/C8H12O/c1-6-4-3-5-8(6)7(2)9/h4,8H,3,5H2,1-2H3/t8-/m1/s1

>  <InChI-Key>
SEHHTJURFQTXSZ-MRVPVSSYSA-N

>  <Smiles>
CC(C1C(C)=CCC1)=O

>  <Molecular Formula>
C8H12O

$$$$
2,6-dimethyl-5-heptanol
Actelion Java MolfileCreator 2.0

  0  0  0  0  0  0              0 V3000
M  V30 BEGIN CTAB
M  V30 COUNTS 10 9 0 0 0
M  V30 BEGIN ATOM
M  V30 1 O 0.0 0.0 0.0 0
M  V30 2 C -0.0571 -1.4401 0.0 0 CFG=2
M  V30 3 C 1.1887 -2.1488 0.0 0
M  V30 4 C -1.4173 -2.1488 0.0 0
M  V30 5 C 2.4345 -1.3144 0.0 0
M  V30 6 C 1.1315 -3.589 0.0 0
M  V30 7 C -2.7774 -1.3144 0.0 0
M  V30 8 C -4.1376 -1.9888 0.0 0
M  V30 9 C -5.4978 -1.1544 0.0 0
M  V30 10 C -4.1948 -3.4289 0.0 0
M  V30 END ATOM
M  V30 BEGIN BOND
M  V30 1 1 2 1 CFG=3
M  V30 2 1 2 3
M  V30 3 1 2 4
M  V30 4 1 3 5
M  V30 5 1 3 6
M  V30 6 1 4 7
M  V30 7 1 7 8
M  V30 8 1 8 9
M  V30 9 1 8 10
M  V30 END BOND
M  V30 BEGIN COLLECTION
M  V30 MDLV30/STERAC1 ATOMS=(1 2)
M  V30 END COLLECTION
M  V30 END CTAB
M  END
>  <Molecule Name>
2,6-dimethyl-5-heptanol

>  <Molecule Name 2>
2,6-dimethyl-5-heptanol

>  <Database>
Essential Oil Database

>  <InChI>
InChI=1S/C9H20O/c1-7(2)5-6-9(10)8(3)4/h7-10H,5-6H2,1-4H3/t9-/m0/s1

>  <InChI-Key>
XZDMJRIWJSNEGC-VIFPVBQESA-N

>  <Smiles>
CC(C)CCC(C(C)C)O

>  <Molecular Formula>
C9H20O

$$$$
2-phenylethylpropionate
Actelion Java MolfileCreator 2.0

  0  0  0  0  0  0              0 V3000
M  V30 BEGIN CTAB
M  V30 COUNTS 13 13 0 0 0
M  V30 BEGIN ATOM
M  V30 1 O 0.0 0.0 0.0 0
M  V30 2 C -0.0621 1.5915 0.0 0
M  V30 3 O -1.4423 2.3997 0.0 0 CHG=-1
M  V30 4 C 1.1936 2.3997 0.0 0 CFG=2
M  V30 5 C 2.4494 1.6661 0.0 0
M  V30 6 C 1.1314 3.9912 0.0 0
M  V30 7 C 3.7052 2.4743 0.0 0
M  V30 8 C 4.961 1.7407 0.0 0
M  V30 9 C 6.2168 2.5489 0.0 0
M  V30 10 C 4.8988 0.2735 0.0 0
M  V30 11 C 7.4726 1.8153 0.0 0
M  V30 12 C 6.1547 -0.4476 0.0 0
M  V30 13 C 7.4105 0.3481 0.0 0
M  V30 END ATOM
M  V30 BEGIN BOND
M  V30 1 2 1 2
M  V30 2 1 2 3
M  V30 3 1 2 4
M  V30 4 1 4 5
M  V30 5 1 4 6 CFG=1
M  V30 6 1 5 7
M  V30 7 1 7 8
M  V30 8 2 8 9
M  V30 9 1 8 10
M  V30 10 1 9 11
M  V30 11 2 10 12
M  V30 12 2 11 13
M  V30 13 1 12 13
M  V30 END BOND
M  V30 BEGIN COLLECTION
M  V30 MDLV30/STERAC1 ATOMS=(1 4)
M  V30 END COLLECTION
M  V30 END CTAB
M  END
>  <Molecule Name>
2-phenylethylpropionate

>  <Molecule Name 2>
2-phenylethylpropionate

>  <Database>
Essential Oil Database

>  <InChI>
InChI=1S/C11H14O2/c1-9(11(12)13)7-8-10-5-3-2-4-6-10/h2-6,9H,7-8H2,1H3,(H,12,13)/p-1/t9-/m0/s1

>  <InChI-Key>
OCKZHEXBLOOGOC-VIFPVBQESA-M

>  <Smiles>
CC(CCc1ccccc1)C([O-])=O

>  <Molecular Formula>
C11H13O2

$$$$
cubebol
Actelion Java MolfileCreator 2.0

  0  0  0  0  0  0              0 V3000
M  V30 BEGIN CTAB
M  V30 COUNTS 16 18 0 0 0
M  V30 BEGIN ATOM
M  V30 1 O 0.0 0.0 0.0 0
M  V30 2 C 0.1742 -1.4565 0.0 0 CFG=2
M  V30 3 C 1.5935 -0.9959 0.0 0
M  V30 4 C 0.0248 -2.9256 0.0 0
M  V30 5 C -1.4192 -1.469 0.0 0
M  V30 6 C 2.3529 -2.216 0.0 0 CFG=2
M  V30 7 C 3.0625 -0.859 0.0 0 CFG=2
M  V30 8 C 1.3943 -3.436 0.0 0
M  V30 9 C 3.1248 -3.436 0.0 0 CFG=1
M  V30 10 C 4.5316 -0.722 0.0 0 CFG=2
M  V30 11 C 4.5938 -3.2991 0.0 0
M  V30 12 C 2.3405 -4.7308 0.0 0
M  V30 13 C 5.1914 0.6971 0.0 0
M  V30 14 C 5.291 -1.9421 0.0 0
M  V30 15 C 4.3199 2.0417 0.0 0
M  V30 16 C 6.6604 0.8341 0.0 0
M  V30 END ATOM
M  V30 BEGIN BOND
M  V30 1 1 2 1 CFG=3
M  V30 2 1 2 3
M  V30 3 1 2 4
M  V30 4 1 2 5
M  V30 5 1 6 3 CFG=1
M  V30 6 1 7 3 CFG=1
M  V30 7 1 4 8
M  V30 8 1 6 9
M  V30 9 1 7 10
M  V30 10 1 9 11
M  V30 11 1 9 12 CFG=1
M  V30 12 1 10 13 CFG=3
M  V30 13 1 10 14
M  V30 14 1 13 15
M  V30 15 1 13 16
M  V30 16 1 6 7
M  V30 17 1 6 8
M  V30 18 1 11 14
M  V30 END BOND
M  V30 BEGIN COLLECTION
M  V30 MDLV30/STERAC1 ATOMS=(5 2 6 7 9 10)
M  V30 END COLLECTION
M  V30 END CTAB
M  END
>  <Molecule Name>
cubebol

>  <Molecule Name 2>
cubebol

>  <Database>
Essential Oil Database

>  <InChI>
InChI=1S/C15H26O/c1-9(2)11-6-5-10(3)15-8-7-14(4,16)13(15)12(11)15/h9-13,16H,5-8H2,1-4H3/t10-,11+,12-,13?,14+,15-/m1/s1

>  <InChI-Key>
KONGRWVLXLWGDV-XWBCKKLOSA-N

>  <Smiles>
CC(C)[C@H]1[C@H](C2[C@](C)(CC3)O)[C@@]23[C@H](C)CC1

>  <Molecular Formula>
C15H26O

$$$$
solanone
Actelion Java MolfileCreator 2.0

  0  0  0  0  0  0              0 V3000
M  V30 BEGIN CTAB
M  V30 COUNTS 14 13 0 0 0
M  V30 BEGIN ATOM
M  V30 1 O 0.0 0.0 0.0 0
M  V30 2 C -0.7793 1.3308 0.0 0
M  V30 3 C -2.3139 1.3907 0.0 0
M  V30 4 C -0.0719 2.6616 0.0 0
M  V30 5 C -3.0932 0.1798 0.0 0
M  V30 6 C -4.6278 0.2397 0.0 0 CFG=2
M  V30 7 C -5.4071 -0.9711 0.0 0
M  V30 8 C -5.4071 1.5705 0.0 0
M  V30 9 C -6.9417 -0.9111 0.0 0
M  V30 10 C -6.9417 1.6305 0.0 0
M  V30 11 C -4.6997 2.9013 0.0 0
M  V30 12 C -7.721 -2.122 0.0 0
M  V30 13 C -9.2556 -2.0621 0.0 0
M  V30 14 C -7.0137 -3.333 0.0 0
M  V30 END ATOM
M  V30 BEGIN BOND
M  V30 1 2 1 2
M  V30 2 1 2 3
M  V30 3 1 2 4
M  V30 4 1 3 5
M  V30 5 1 6 5 CFG=3
M  V30 6 1 6 7
M  V30 7 1 6 8
M  V30 8 2 7 9
M  V30 9 1 8 10
M  V30 10 1 8 11
M  V30 11 1 9 12
M  V30 12 2 12 13
M  V30 13 1 12 14
M  V30 END BOND
M  V30 BEGIN COLLECTION
M  V30 MDLV30/STERAC1 ATOMS=(1 6)
M  V30 END COLLECTION
M  V30 END CTAB
M  END
>  <Molecule Name>
solanone

>  <Molecule Name 2>
solanone

>  <Database>
Essential Oil Database

>  <InChI>
InChI=1S/C13H22O/c1-10(2)6-8-13(11(3)4)9-7-12(5)14/h6,8,11,13H,1,7,9H2,2-5H3/b8-6+/t13-/m0/s1

>  <InChI-Key>
PQDRXUSSKFWCFA-CFNZNRNTSA-N

>  <Smiles>
CC(C)C(CCC(C)=O)/C=C/C(C)=C

>  <Molecular Formula>
C13H22O

$$$$
