Compound 1
     RDKit          2D

  4  3  0  0  0  0  0  0  0  0999 V2000
    0.0000    0.0000    0.0000 Cl  0  0  0  0  0  0  0  0  0  0  0  0
    1.2824    0.7977    0.0000 C   0  0  0  0  0  0  0  0  0  0  0  0
    2.5649    0.0605    0.0000 C   0  0  0  0  0  0  0  0  0  0  0  0
    3.8474    0.8583    0.0000 Cl  0  0  0  0  0  0  0  0  0  0  0  0
  1  2  1  0
  2  3  1  0
  3  4  1  0
M  END
>  <Structure No>
1

>  <Molecule Name>
Ethylene dichloride

>  <PubChem CID>
11

>  <SMILES>
ClCCCl

>  <InChIKey>
WSLDOOZREJYCGB-UHFFFAOYSA-N

>  <Molecular Formula>
C2H4Cl2

>  <Target Organism>
Aedes aegypti

>  <Reference DOI>
10.3390/toxics11100837

>  <Activity Label>
1

>  <Repellency>
Active

>  <IUPAC>
1,2-dichloroethane

>  <Common name>
Ethylene dichloride

$$$$
Compound 2
     RDKit          2D

  4  3  0  0  0  0  0  0  0  0999 V2000
    0.0000    0.0000    0.0000 Cl  0  0  0  0  0  0  0  0  0  0  0  0
    1.2736    0.7922    0.0000 C   0  0  0  0  0  0  0  0  0  0  0  0
    2.5473    1.5845    0.0000 C   0  0  0  0  0  0  0  0  0  0  0  0
    3.8210    2.3768    0.0000 Cl  0  0  0  0  0  0  0  0  0  0  0  0
  1  2  1  0
  2  3  3  0
  3  4  1  0
M  END
>  <Structure No>
2

>  <Molecule Name>
Dichloroacetylene

>  <PubChem CID>
24227

>  <SMILES>
ClC#CCl

>  <InChIKey>
ZMJOVJSTYLQINE-UHFFFAOYSA-N

>  <Molecular Formula>
C2Cl2

>  <Target Organism>
Aedes aegypti

>  <Reference DOI>
10.1371/annotation/1dc83f26-8045-4b63-8a86-24c7b71a7f79

>  <Activity Label>
1

>  <Repellency>
Active

>  <IUPAC>
1,2-dichloroethyne

>  <Common name>
Dichloroacetylene

$$$$
Compound 3
     RDKit          2D

  4  3  0  0  0  0  0  0  0  0999 V2000
    0.0000    0.0000    0.0000 O   0  0  0  0  0  0  0  0  0  0  0  0
   -1.3526   -0.6541    0.0000 C   0  0  0  0  0  0  0  0  0  0  0  0
   -2.7053    0.1773    0.0000 C   0  0  0  0  0  0  0  0  0  0  0  0
   -1.4191   -2.0622    0.0000 C   0  0  0  0  0  0  0  0  0  0  0  0
  1  2  2  0
  2  3  1  0
  2  4  1  0
M  END
>  <Structure No>
3

>  <Molecule Name>
Acetone

>  <PubChem CID>
180

>  <SMILES>
CC(C)=O

>  <InChIKey>
CSCPPACGZOOCGX-UHFFFAOYSA-N

>  <Molecular Formula>
C3H6O

>  <Target Organism>
Aedes albopictus

>  <Reference DOI>
10.1021/acs.jafc.2c05537

>  <Activity Label>
1

>  <Repellency>
Active

>  <IUPAC>
propan-2-one

>  <Common name>
Acetone

$$$$
Compound 4
     RDKit          2D

  6  6  0  0  0  0  0  0  0  0999 V2000
    0.0000    0.0000    0.0000 S   0  0  0  0  0  0  0  0  0  0  0  0
    1.1717    0.8960    0.0000 C   0  0  0  0  0  0  0  0  0  0  0  0
   -1.2407    0.8960    0.0000 C   0  0  0  0  0  0  0  0  0  0  0  0
    0.6663    2.3550    0.0000 N   0  0  0  0  0  0  0  0  0  0  0  0
    2.5618    0.4595    0.0000 C   0  0  0  0  0  0  0  0  0  0  0  0
   -0.8041    2.3550    0.0000 C   0  0  0  0  0  0  0  0  0  0  0  0
  1  2  1  0
  1  3  1  0
  2  4  2  0
  2  5  1  0
  3  6  1  0
  4  6  1  0
M  END
>  <Structure No>
4

>  <Molecule Name>
2-Methyl-2-thiazoline

>  <PubChem CID>
16867

>  <SMILES>
CC1=NCCS1

>  <InChIKey>
JUIQOABNSLTJSW-UHFFFAOYSA-N

>  <Molecular Formula>
C4H7NS

>  <Target Organism>
Anopheles spp.

>  <Reference DOI>
10.1186/s13071-017-2122-8

>  <Activity Label>
1

>  <Repellency>
Active

>  <IUPAC>
2-methyl-4,5-dihydro-1,3-thiazole

>  <Common name>
2-Methyl-2-thiazoline

$$$$
Compound 5
     RDKit          2D

  6  5  0  0  0  0  0  0  0  0999 V2000
    0.0000    0.0000    0.0000 O   0  0  0  0  0  0  0  0  0  0  0  0
   -0.0734    1.5551    0.0000 C   0  0  0  0  0  0  0  0  0  0  0  0
   -1.4204    2.3388    0.0000 O   0  0  0  0  0  0  0  0  0  0  0  0
    1.1265    2.3388    0.0000 C   0  0  0  0  0  0  0  0  0  0  0  0
    1.0531    3.8940    0.0000 O   0  0  0  0  0  0  0  0  0  0  0  0
    2.3266    1.6286    0.0000 N   0  0  0  0  0  0  0  0  0  0  0  0
  1  2  2  0
  2  3  1  0
  2  4  1  0
  4  5  2  0
  4  6  1  0
M  END
>  <Structure No>
5

>  <Molecule Name>
Oxamic Acid

>  <PubChem CID>
974

>  <SMILES>
NC(C(O)=O)=O

>  <InChIKey>
SOWBFZRMHSNYGE-UHFFFAOYSA-N

>  <Molecular Formula>
C2H3NO3

>  <Target Organism>
Anopheles spp.

>  <Reference DOI>
10.1186/s13071-017-2122-8

>  <Activity Label>
1

>  <Repellency>
Active

>  <IUPAC>
oxamic acid

>  <Common name>
Oxamic Acid

$$$$
Compound 6
     RDKit          2D

  7  6  0  0  0  0  0  0  0  0999 V2000
    0.0000    0.0000    0.0000 O   0  0  0  0  0  0  0  0  0  0  0  0
    0.6830   -1.2670    0.0000 C   0  0  0  0  0  0  0  0  0  0  0  0
    1.9500   -0.4627    0.0000 C   0  0  0  0  0  0  0  0  0  0  0  0
   -0.7161   -1.9610    0.0000 C   0  0  0  0  0  0  0  0  0  0  0  0
    1.3661   -2.5340    0.0000 C   0  0  0  0  0  0  0  0  0  0  0  0
    3.2170   -1.1568    0.0000 O   0  0  0  0  0  0  0  0  0  0  0  0
   -2.1153   -1.1568    0.0000 O   0  0  0  0  0  0  0  0  0  0  0  0
  1  2  1  0
  2  3  1  0
  2  4  1  0
  2  5  1  0
  3  6  1  0
  4  7  1  0
M  END
>  <Structure No>
6

>  <Molecule Name>
2-Methylpropane-1,2,3-triol

>  <PubChem CID>
345901

>  <SMILES>
CC(CO)(CO)O

>  <InChIKey>
OOJRTGIXWIUBGG-UHFFFAOYSA-N

>  <Molecular Formula>
C4H10O3

>  <Target Organism>
Aedes albopictus

>  <Reference DOI>
10.1021/acs.jafc.2c05537

>  <Activity Label>
1

>  <Repellency>
Active

>  <IUPAC>
2-methylpropane-1,2,3-triol

>  <Common name>
2-Methylpropane-1,2,3-triol

$$$$
Compound 7
     RDKit          2D

  7  7  0  0  0  0  0  0  0  0999 V2000
    0.0000    0.0000    0.0000 O   0  0  0  0  0  0  0  0  0  0  0  0
   -0.0695   -1.4721    0.0000 C   0  0  0  0  0  0  0  0  0  0  0  0
    1.2055   -2.1793    0.0000 C   0  0  0  0  0  0  0  0  0  0  0  0
   -1.4837   -2.1793    0.0000 C   0  0  0  0  0  0  0  0  0  0  0  0
    1.1360   -3.6515    0.0000 C   0  0  0  0  0  0  0  0  0  0  0  0
   -1.5533   -3.6515    0.0000 C   0  0  0  0  0  0  0  0  0  0  0  0
   -0.2782   -4.3586    0.0000 C   0  0  0  0  0  0  0  0  0  0  0  0
  1  2  2  0
  2  3  1  0
  2  4  1  0
  3  5  1  0
  4  6  1  0
  5  7  1  0
  6  7  1  0
M  END
>  <Structure No>
7

>  <Molecule Name>
Cyclohexanone

>  <PubChem CID>
7967

>  <SMILES>
O=C1CCCCC1

>  <InChIKey>
JHIVVAPYMSGYDF-UHFFFAOYSA-N

>  <Molecular Formula>
C6H10O

>  <Target Organism>
Aedes albopictus

>  <Reference DOI>
10.1021/acs.jafc.2c05537

>  <Activity Label>
1

>  <Repellency>
Active

>  <IUPAC>
cyclohexanone

>  <Common name>
Cyclohexanone

$$$$
Compound 8
     RDKit          2D

  8  8  0  0  0  0  0  0  0  0999 V2000
    0.0000    0.0000    0.0000 O   0  0  0  0  0  0  0  0  0  0  0  0
   -1.3644    0.8594    0.0000 C   0  0  0  0  0  0  0  0  0  0  0  0
   -2.7288    0.2793    0.0000 C   0  0  0  0  0  0  0  0  0  0  0  0
   -4.0933    1.1388    0.0000 C   0  0  0  0  0  0  0  0  0  0  0  0
   -2.8255   -1.0743    0.0000 C   0  0  0  0  0  0  0  0  0  0  0  0
   -5.4577    0.5586    0.0000 C   0  0  0  0  0  0  0  0  0  0  0  0
   -4.1900   -1.6545    0.0000 C   0  0  0  0  0  0  0  0  0  0  0  0
   -5.5544   -0.7950    0.0000 C   0  0  0  0  0  0  0  0  0  0  0  0
  1  2  2  0
  2  3  1  0
  3  4  2  0
  3  5  1  0
  4  6  1  0
  5  7  2  0
  6  8  2  0
  7  8  1  0
M  END
>  <Structure No>
8

>  <Molecule Name>
Benzaldehyde

>  <PubChem CID>
240

>  <SMILES>
O=Cc1ccccc1

>  <InChIKey>
HUMNYLRZRPPJDN-UHFFFAOYSA-N

>  <Molecular Formula>
C7H6O

>  <Target Organism>
Rhipicephalus sanguineus

>  <Reference DOI>
10.1016/j.jchromb.2016.03.014.

>  <Activity Label>
1

>  <Repellency>
Active

>  <IUPAC>
benzaldehyde

>  <Common name>
Benzaldehyde

$$$$
Compound 9
     RDKit          2D

  8  8  0  0  0  0  0  0  0  0999 V2000
    0.0000    0.0000    0.0000 N   0  0  0  0  0  0  0  0  0  0  0  0
   -1.3136    0.7523    0.0000 C   0  0  0  0  0  0  0  0  0  0  0  0
    1.2419    0.7523    0.0000 C   0  0  0  0  0  0  0  0  0  0  0  0
   -1.3494    2.2689    0.0000 C   0  0  0  0  0  0  0  0  0  0  0  0
   -2.6272    0.0238    0.0000 C   0  0  0  0  0  0  0  0  0  0  0  0
    1.2061    2.2689    0.0000 C   0  0  0  0  0  0  0  0  0  0  0  0
   -0.1074    3.0332    0.0000 N   0  0  0  0  0  0  0  0  0  0  0  0
   -2.6630    3.0332    0.0000 C   0  0  0  0  0  0  0  0  0  0  0  0
  1  2  2  0
  1  3  1  0
  2  4  1  0
  2  5  1  0
  3  6  2  0
  4  7  2  0
  4  8  1  0
  6  7  1  0
M  END
>  <Structure No>
9

>  <Molecule Name>
2,3-Dimethylpyrazine

>  <PubChem CID>
22201

>  <SMILES>
Cc1nccnc1C

>  <InChIKey>
OXQOBQJCDNLAPO-UHFFFAOYSA-N

>  <Molecular Formula>
C6H8N2

>  <Target Organism>
Anopheles spp.

>  <Reference DOI>
10.1186/s13071-017-2122-8

>  <Activity Label>
1

>  <Repellency>
Active

>  <IUPAC>
2,3-dimethylpyrazine

>  <Common name>
2,3-Dimethylpyrazine

$$$$
Compound 10
     RDKit          2D

  8  7  0  0  0  0  0  0  0  0999 V2000
    0.0000    0.0000    0.0000 C   0  0  0  0  0  0  0  0  0  0  0  0
   -0.0670   -1.4197    0.0000 C   0  0  0  0  0  0  0  0  0  0  0  0
   -1.3638    0.8384    0.0000 C   0  0  0  0  0  0  0  0  0  0  0  0
    1.2296    0.8384    0.0000 C   0  0  0  0  0  0  0  0  0  0  0  0
   -2.7276    0.1900    0.0000 C   0  0  0  0  0  0  0  0  0  0  0  0
    2.4593    0.1900    0.0000 C   0  0  0  0  0  0  0  0  0  0  0  0
   -4.0914    1.0284    0.0000 C   0  0  0  0  0  0  0  0  0  0  0  0
    3.6890    1.0284    0.0000 C   0  0  0  0  0  0  0  0  0  0  0  0
  1  2  2  0
  1  3  1  0
  1  4  1  0
  3  5  1  0
  4  6  1  0
  5  7  1  0
  6  8  1  0
M  END
>  <Structure No>
10

>  <Molecule Name>
Heptane, 4-methylene-

>  <PubChem CID>
519193

>  <SMILES>
CCCC(CCC)=C

>  <InChIKey>
FYUUBXZYRPRIHC-UHFFFAOYSA-N

>  <Molecular Formula>
C8H16

>  <Target Organism>
Aedes albopictus

>  <Reference DOI>
10.1021/acs.jafc.2c05537

>  <Activity Label>
1

>  <Repellency>
Active

>  <IUPAC>
4-methylideneheptane

>  <Common name>
Heptane, 4-methylene-

$$$$
Compound 11
     RDKit          2D

  8  7  0  0  0  0  0  0  0  0999 V2000
    0.0000    0.0000    0.0000 O   0  0  0  0  0  0  0  0  0  0  0  0
   -0.0361    1.5289    0.0000 C   0  0  0  0  0  0  0  0  0  0  0  0
    1.2159    2.2995    0.0000 C   0  0  0  0  0  0  0  0  0  0  0  0
   -1.3604    2.2995    0.0000 C   0  0  0  0  0  0  0  0  0  0  0  0
    2.4680    1.5651    0.0000 C   0  0  0  0  0  0  0  0  0  0  0  0
   -2.6847    1.5651    0.0000 C   0  0  0  0  0  0  0  0  0  0  0  0
    3.7201    2.3356    0.0000 C   0  0  0  0  0  0  0  0  0  0  0  0
   -4.0090    2.3356    0.0000 C   0  0  0  0  0  0  0  0  0  0  0  0
  1  2  2  0
  2  3  1  0
  2  4  1  0
  3  5  1  0
  4  6  1  0
  5  7  1  0
  6  8  1  0
M  END
>  <Structure No>
11

>  <Molecule Name>
4-Heptanone

>  <PubChem CID>
31246

>  <SMILES>
CCCC(CCC)=O

>  <InChIKey>
HCFAJYNVAYBARA-UHFFFAOYSA-N

>  <Molecular Formula>
C7H14O

>  <Target Organism>
Aedes aegypti

>  <Reference DOI>
10.1371/annotation/1dc83f26-8045-4b63-8a86-24c7b71a7f79

>  <Activity Label>
1

>  <Repellency>
Active

>  <IUPAC>
heptan-4-one

>  <Common name>
4-Heptanone

$$$$
Compound 12
     RDKit          2D

  9  8  0  0  0  0  0  0  0  0999 V2000
    0.0000    0.0000    0.0000 C   0  0  0  0  0  0  0  0  0  0  0  0
   -0.0681   -1.4427    0.0000 C   0  0  0  0  0  0  0  0  0  0  0  0
    1.2496    0.8520    0.0000 C   0  0  0  0  0  0  0  0  0  0  0  0
   -1.3859    0.8520    0.0000 C   0  0  0  0  0  0  0  0  0  0  0  0
    2.4992    0.1704    0.0000 C   0  0  0  0  0  0  0  0  0  0  0  0
   -2.7719    0.1704    0.0000 C   0  0  0  0  0  0  0  0  0  0  0  0
    3.7488    1.0224    0.0000 C   0  0  0  0  0  0  0  0  0  0  0  0
    4.9985    0.3408    0.0000 C   0  0  0  0  0  0  0  0  0  0  0  0
    6.2481    1.1928    0.0000 C   0  0  0  0  0  0  0  0  0  0  0  0
  1  2  2  0
  1  3  1  0
  1  4  1  0
  3  5  1  0
  4  6  1  0
  5  7  1  0
  7  8  1  0
  8  9  1  0
M  END
>  <Structure No>
12

>  <Molecule Name>
3-Methylideneoctane

>  <PubChem CID>
13383766

>  <SMILES>
CCCCCC(CC)=C

>  <InChIKey>
SLHFFNUTOSKGQG-UHFFFAOYSA-N

>  <Molecular Formula>
C9H18

>  <Target Organism>
Aedes albopictus

>  <Reference DOI>
10.1021/acs.jafc.2c05537

>  <Activity Label>
1

>  <Repellency>
Active

>  <IUPAC>
3-methylideneoctane

>  <Common name>
3-Methylideneoctane

$$$$
Compound 13
     RDKit          2D

  9  8  0  0  0  0  0  0  0  0999 V2000
    0.0000    0.0000    0.0000 O   0  0  0  0  0  0  0  0  0  0  0  0
   -0.0362    1.5348    0.0000 C   0  0  0  0  0  0  0  0  0  0  0  0
    1.2206    2.3082    0.0000 C   0  0  0  0  0  0  0  0  0  0  0  0
   -1.3656    2.3082    0.0000 C   0  0  0  0  0  0  0  0  0  0  0  0
    2.4774    1.5710    0.0000 C   0  0  0  0  0  0  0  0  0  0  0  0
    1.1843    3.8430    0.0000 C   0  0  0  0  0  0  0  0  0  0  0  0
   -2.6949    1.5710    0.0000 C   0  0  0  0  0  0  0  0  0  0  0  0
    2.4412    0.1087    0.0000 O   0  0  0  0  0  0  0  0  0  0  0  0
    3.7343    2.3445    0.0000 C   0  0  0  0  0  0  0  0  0  0  0  0
  1  2  1  0
  2  3  1  0
  2  4  1  0
  3  5  1  0
  3  6  1  0
  4  7  1  0
  5  8  1  0
  5  9  1  0
M  END
>  <Structure No>
13

>  <Molecule Name>
3-Methyl-2,4-hexanediol

>  <PubChem CID>
22245660

>  <SMILES>
CCC(C(C)C(C)O)O

>  <InChIKey>
HSFITJPGVVSHAQ-UHFFFAOYSA-N

>  <Molecular Formula>
C7H16O2

>  <Target Organism>
Aedes aegypti

>  <Reference DOI>
10.3390/toxics11100837

>  <Activity Label>
1

>  <Repellency>
Active

>  <IUPAC>
3-methylhexane-2,4-diol

>  <Common name>
3-Methyl-2,4-hexanediol

$$$$
Compound 14
     RDKit          2D

  9  8  0  0  0  0  0  0  0  0999 V2000
    0.0000    0.0000    0.0000 O   0  0  0  0  0  0  0  0  0  0  0  0
   -0.0363   -1.4657    0.0000 C   0  0  0  0  0  0  0  0  0  0  0  0
    1.2234   -2.2046    0.0000 C   0  0  0  0  0  0  0  0  0  0  0  0
   -1.3688   -2.2046    0.0000 C   0  0  0  0  0  0  0  0  0  0  0  0
    2.4832   -1.4294    0.0000 C   0  0  0  0  0  0  0  0  0  0  0  0
    1.1871   -3.6704    0.0000 C   0  0  0  0  0  0  0  0  0  0  0  0
   -2.7013   -1.4294    0.0000 C   0  0  0  0  0  0  0  0  0  0  0  0
   -4.0338   -2.1683    0.0000 O   0  0  0  0  0  0  0  0  0  0  0  0
   -2.7376    0.1090    0.0000 C   0  0  0  0  0  0  0  0  0  0  0  0
  1  2  1  0
  2  3  1  0
  2  4  1  0
  3  5  1  0
  3  6  1  0
  4  7  1  0
  7  8  1  0
  7  9  1  0
M  END
>  <Structure No>
14

>  <Molecule Name>
5-Methylhexane-2,4-diol

>  <PubChem CID>
4914394

>  <SMILES>
CC(C)C(CC(C)O)O

>  <InChIKey>
YRDZJWZHGKDMBL-UHFFFAOYSA-N

>  <Molecular Formula>
C7H16O2

>  <Target Organism>
Aedes aegypti

>  <Reference DOI>
10.3390/toxics11100837

>  <Activity Label>
1

>  <Repellency>
Active

>  <IUPAC>
5-methylhexane-2,4-diol

>  <Common name>
5-Methylhexane-2,4-diol

$$$$
Compound 15
     RDKit          2D

  9  8  0  0  0  0  0  0  0  0999 V2000
    0.0000    0.0000    0.0000 S   0  0  0  0  0  0  0  0  0  0  0  0
    0.7042    1.3348    0.0000 O   0  0  0  0  0  0  0  0  0  0  0  0
   -0.7672    1.3348    0.0000 O   0  0  0  0  0  0  0  0  0  0  0  0
    1.2718   -0.7042    0.0000 C   0  0  0  0  0  0  0  0  0  0  0  0
   -1.3348   -0.7042    0.0000 C   0  0  0  0  0  0  0  0  0  0  0  0
    2.5436    0.0630    0.0000 C   0  0  0  0  0  0  0  0  0  0  0  0
   -2.6697    0.0630    0.0000 C   0  0  0  0  0  0  0  0  0  0  0  0
    3.8154   -0.6411    0.0000 C   0  0  0  0  0  0  0  0  0  0  0  0
   -4.0046   -0.6411    0.0000 C   0  0  0  0  0  0  0  0  0  0  0  0
  1  2  2  0
  1  3  2  0
  1  4  1  0
  1  5  1  0
  4  6  1  0
  5  7  1  0
  6  8  1  0
  7  9  1  0
M  END
>  <Structure No>
15

>  <Molecule Name>
Propyl sulfone

>  <PubChem CID>
11709

>  <SMILES>
CCCS(CCC)(=O)=O

>  <InChIKey>
JEXYCADTAFPULN-UHFFFAOYSA-N

>  <Molecular Formula>
C6H14O2S

>  <Target Organism>
Aedes aegypti

>  <Reference DOI>
10.3390/toxics11100837

>  <Activity Label>
1

>  <Repellency>
Active

>  <IUPAC>
1-propylsulfonylpropane

>  <Common name>
Propyl sulfone

$$$$
Compound 16
     RDKit          2D

  9  8  0  0  0  0  0  0  0  0999 V2000
    0.0000    0.0000    0.0000 O   0  0  0  0  0  0  0  0  0  0  0  0
    1.2729    0.8519    0.0000 C   0  0  0  0  0  0  0  0  0  0  0  0
    2.5458    0.1202    0.0000 C   0  0  0  0  0  0  0  0  0  0  0  0
    3.8188    0.9722    0.0000 C   0  0  0  0  0  0  0  0  0  0  0  0
    5.0917    0.2405    0.0000 C   0  0  0  0  0  0  0  0  0  0  0  0
    6.3647    1.0925    0.0000 C   0  0  0  0  0  0  0  0  0  0  0  0
    7.6376    0.3608    0.0000 C   0  0  0  0  0  0  0  0  0  0  0  0
    8.9106    1.2128    0.0000 C   0  0  0  0  0  0  0  0  0  0  0  0
   10.1835    0.4811    0.0000 C   0  0  0  0  0  0  0  0  0  0  0  0
  1  2  2  0
  2  3  1  0
  3  4  1  0
  4  5  1  0
  5  6  1  0
  6  7  1  0
  7  8  1  0
  8  9  1  0
M  END
>  <Structure No>
16

>  <Molecule Name>
Octanal

>  <PubChem CID>
454

>  <SMILES>
CCCCCCCC=O

>  <InChIKey>
NUJGJRNETVAIRJ-UHFFFAOYSA-N

>  <Molecular Formula>
C8H16O

>  <Target Organism>
Aedes albopictus

>  <Reference DOI>
10.1021/acs.jafc.2c05537

>  <Activity Label>
1

>  <Repellency>
Active

>  <IUPAC>
octanal

>  <Common name>
Octanal

$$$$
Compound 17
     RDKit          2D

  0  0  0  0  0  0  0  0  0  0999 V3000
M  V30 BEGIN CTAB
M  V30 COUNTS 9 8 0 0 0
M  V30 BEGIN ATOM
M  V30 1 O 0.000000 0.000000 0.000000 0
M  V30 2 C 1.295000 0.812300 0.000000 0
M  V30 3 C 2.590100 0.094100 0.000000 0
M  V30 4 C 3.885200 0.906500 0.000000 0
M  V30 5 C 2.554800 -1.401000 0.000000 0
M  V30 6 C 5.180300 0.188300 0.000000 0
M  V30 7 C 3.849900 -2.107400 0.000000 0
M  V30 8 C 6.475400 1.000700 0.000000 0
M  V30 9 C 7.770500 0.282500 0.000000 0
M  V30 END ATOM
M  V30 BEGIN BOND
M  V30 1 2 1 2
M  V30 2 1 3 2
M  V30 3 1 3 4 CFG=3
M  V30 4 1 3 5
M  V30 5 1 4 6
M  V30 6 1 5 7
M  V30 7 1 6 8
M  V30 8 1 8 9
M  V30 END BOND
M  V30 BEGIN COLLECTION
M  V30 MDLV30/STERAC1 ATOMS=(1 3)
M  V30 END COLLECTION
M  V30 END CTAB
M  END
>  <Structure No>
17

>  <Molecule Name>
2-Ethylhexanal

>  <PubChem CID>
31241

>  <SMILES>
CCCCC(CC)C=O

>  <InChIKey>
LGYNIFWIKSEESD-UHFFFAOYSA-N

>  <Molecular Formula>
C8H16O

>  <Target Organism>
Aedes aegypti

>  <Reference DOI>
10.1371/annotation/1dc83f26-8045-4b63-8a86-24c7b71a7f79

>  <Activity Label>
1

>  <Repellency>
Active

>  <IUPAC>
2-ethylhexanal

>  <Common name>
2-Ethylhexanal

$$$$
Compound 18
     RDKit          2D

  9  8  0  0  0  0  0  0  0  0999 V2000
    0.0000    0.0000    0.0000 O   0  0  0  0  0  0  0  0  0  0  0  0
   -0.0364    1.5431    0.0000 C   0  0  0  0  0  0  0  0  0  0  0  0
    1.2272    2.3208    0.0000 C   0  0  0  0  0  0  0  0  0  0  0  0
   -1.3730    2.3208    0.0000 C   0  0  0  0  0  0  0  0  0  0  0  0
    2.4909    1.5796    0.0000 C   0  0  0  0  0  0  0  0  0  0  0  0
   -2.7096    1.5796    0.0000 C   0  0  0  0  0  0  0  0  0  0  0  0
    3.7546    2.3573    0.0000 C   0  0  0  0  0  0  0  0  0  0  0  0
    5.0184    1.6160    0.0000 C   0  0  0  0  0  0  0  0  0  0  0  0
    6.2821    2.3937    0.0000 C   0  0  0  0  0  0  0  0  0  0  0  0
  1  2  2  0
  2  3  1  0
  2  4  1  0
  3  5  1  0
  4  6  1  0
  5  7  1  0
  7  8  1  0
  8  9  1  0
M  END
>  <Structure No>
18

>  <Molecule Name>
3-Octanone

>  <PubChem CID>
246728

>  <SMILES>
CCCCCC(CC)=O

>  <InChIKey>
RHLVCLIPMVJYKS-UHFFFAOYSA-N

>  <Molecular Formula>
C8H16O

>  <Target Organism>
Aedes aegypti

>  <Reference DOI>
10.1371/annotation/1dc83f26-8045-4b63-8a86-24c7b71a7f79

>  <Activity Label>
1

>  <Repellency>
Active

>  <IUPAC>
octan-3-one

>  <Common name>
3-Octanone

$$$$
Compound 19
     RDKit          2D

  9  8  0  0  0  0  0  0  0  0999 V2000
    0.0000    0.0000    0.0000 O   0  0  0  0  0  0  0  0  0  0  0  0
   -0.0759    1.6068    0.0000 C   0  0  0  0  0  0  0  0  0  0  0  0
    1.1639    2.4165    0.0000 C   0  0  0  0  0  0  0  0  0  0  0  0
   -1.4676    2.4165    0.0000 C   0  0  0  0  0  0  0  0  0  0  0  0
    2.4039    1.6827    0.0000 C   0  0  0  0  0  0  0  0  0  0  0  0
    3.6438    2.4924    0.0000 C   0  0  0  0  0  0  0  0  0  0  0  0
    4.8837    1.7586    0.0000 C   0  0  0  0  0  0  0  0  0  0  0  0
    6.1236    2.5683    0.0000 C   0  0  0  0  0  0  0  0  0  0  0  0
    4.8078    0.3036    0.0000 C   0  0  0  0  0  0  0  0  0  0  0  0
  1  2  2  0
  2  3  1  0
  2  4  1  0
  3  5  1  0
  5  6  1  0
  6  7  2  0
  7  8  1  0
  7  9  1  0
M  END
>  <Structure No>
19

>  <Molecule Name>
6-Methyl-5-hepten-2-one

>  <PubChem CID>
9862

>  <SMILES>
CC(C)=CCCC(C)=O

>  <InChIKey>
UHEPJGULSIKKTP-UHFFFAOYSA-N

>  <Molecular Formula>
C8H14O

>  <Target Organism>
Aedes albopictus

>  <Reference DOI>
10.1021/acs.jafc.2c05537

>  <Activity Label>
1

>  <Repellency>
Active

>  <IUPAC>
6-methylhept-5-en-2-one

>  <Common name>
6-Methyl-5-hepten-2-one

$$$$
Compound 20
     RDKit          2D

  0  0  0  0  0  0  0  0  0  0999 V3000
M  V30 BEGIN CTAB
M  V30 COUNTS 9 8 0 0 0
M  V30 BEGIN ATOM
M  V30 1 S 0.000000 0.000000 0.000000 0
M  V30 2 S 1.209200 0.887500 0.000000 0
M  V30 3 O -0.099800 -1.397800 0.000000 0
M  V30 4 C -1.408900 0.887500 0.000000 0
M  V30 5 C 2.418400 0.255100 0.000000 0
M  V30 6 C -2.817800 0.255100 0.000000 0
M  V30 7 C 3.627600 1.142600 0.000000 0
M  V30 8 C -4.226700 1.142600 0.000000 0
M  V30 9 C 4.836900 0.521400 0.000000 0
M  V30 END ATOM
M  V30 BEGIN BOND
M  V30 1 1 1 2
M  V30 2 2 1 3
M  V30 3 1 1 4 CFG=3
M  V30 4 1 2 5
M  V30 5 1 4 6
M  V30 6 1 5 7
M  V30 7 2 6 8
M  V30 8 2 7 9
M  V30 END BOND
M  V30 BEGIN COLLECTION
M  V30 MDLV30/STERAC1 ATOMS=(1 1)
M  V30 END COLLECTION
M  V30 END CTAB
M  END
>  <Structure No>
20

>  <Molecule Name>
3-[(S)-prop-2-enylsulfinyl]sulfanylprop-1-ene

>  <PubChem CID>
65036

>  <SMILES>
C=CCS[S@@](CC=C)=O

>  <InChIKey>
JDLKFOPOAOFWQN-VIFPVBQESA-N

>  <Molecular Formula>
C6H10OS2

>  <Target Organism>
Musca domestica L.

>  <Reference DOI>
10.1080/09670874.2015.1120363; 10.1584/jpestics.25.247

>  <Activity Label>
1

>  <Repellency>
Active

>  <IUPAC>
3-prop-2-enylsulfinylsulfanylprop-1-ene

>  <Common name>
3-[(S)-prop-2-enylsulfinyl]sulfanylprop-1-ene

$$$$
Compound 21
     RDKit          2D

  9  8  0  0  0  0  0  0  0  0999 V2000
    0.0000    0.0000    0.0000 O   0  0  0  0  0  0  0  0  0  0  0  0
   -1.3483    0.7750    0.0000 C   0  0  0  0  0  0  0  0  0  0  0  0
   -2.6966    0.1167    0.0000 C   0  0  0  0  0  0  0  0  0  0  0  0
   -4.0449   -0.5414    0.0000 C   0  0  0  0  0  0  0  0  0  0  0  0
   -3.4716    1.4651    0.0000 C   0  0  0  0  0  0  0  0  0  0  0  0
   -2.0384   -1.1041    0.0000 C   0  0  0  0  0  0  0  0  0  0  0  0
   -5.3932    0.2335    0.0000 O   0  0  0  0  0  0  0  0  0  0  0  0
   -2.8134    2.8134    0.0000 O   0  0  0  0  0  0  0  0  0  0  0  0
   -2.8134   -2.3250    0.0000 C   0  0  0  0  0  0  0  0  0  0  0  0
  1  2  1  0
  2  3  1  0
  3  4  1  0
  3  5  1  0
  3  6  1  0
  4  7  1  0
  5  8  1  0
  6  9  1  0
M  END
>  <Structure No>
21

>  <Molecule Name>
Trimethylolpropane

>  <PubChem CID>
6510

>  <SMILES>
CCC(CO)(CO)CO

>  <InChIKey>
ZJCCRDAZUWHFQH-UHFFFAOYSA-N

>  <Molecular Formula>
C6H14O3

>  <Target Organism>
Aedes albopictus

>  <Reference DOI>
10.1021/acs.jafc.2c05537

>  <Activity Label>
1

>  <Repellency>
Active

>  <IUPAC>
2-ethyl-2-(hydroxymethyl)propane-1,3-diol

>  <Common name>
Trimethylolpropane

$$$$
Compound 22
     RDKit          2D

  9  9  0  0  0  0  0  0  0  0999 V2000
    0.0000    0.0000    0.0000 O   0  0  0  0  0  0  0  0  0  0  0  0
   -0.6567    1.3970    0.0000 C   0  0  0  0  0  0  0  0  0  0  0  0
   -2.1731    1.4686    0.0000 C   0  0  0  0  0  0  0  0  0  0  0  0
    0.2746    2.4716    0.0000 C   0  0  0  0  0  0  0  0  0  0  0  0
   -3.2478    2.5433    0.0000 C   0  0  0  0  0  0  0  0  0  0  0  0
    0.2029    3.9881    0.0000 C   0  0  0  0  0  0  0  0  0  0  0  0
   -3.3194    4.0597    0.0000 C   0  0  0  0  0  0  0  0  0  0  0  0
   -0.8716    5.0627    0.0000 C   0  0  0  0  0  0  0  0  0  0  0  0
   -2.3881    5.1344    0.0000 C   0  0  0  0  0  0  0  0  0  0  0  0
  1  2  2  0
  2  3  1  0
  2  4  1  0
  3  5  1  0
  4  6  1  0
  5  7  1  0
  6  8  1  0
  7  9  1  0
  8  9  1  0
M  END
>  <Structure No>
22

>  <Molecule Name>
Cyclooctanone

>  <PubChem CID>
10403

>  <SMILES>
O=C1CCCCCCC1

>  <InChIKey>
IIRFCWANHMSDCG-UHFFFAOYSA-N

>  <Molecular Formula>
C8H14O

>  <Target Organism>
Aedes albopictus

>  <Reference DOI>
10.1021/acs.jafc.2c05537

>  <Activity Label>
1

>  <Repellency>
Active

>  <IUPAC>
cyclooctanone

>  <Common name>
Cyclooctanone

$$$$
Compound 23
     RDKit          2D

  9  9  0  0  0  0  0  0  0  0999 V2000
    0.0000    0.0000    0.0000 I   0  0  0  0  0  0  0  0  0  0  0  0
    1.2796   -0.7505    0.0000 C   0  0  0  0  0  0  0  0  0  0  0  0
    2.5592    0.0369    0.0000 C   0  0  0  0  0  0  0  0  0  0  0  0
    1.2427   -2.2393    0.0000 C   0  0  0  0  0  0  0  0  0  0  0  0
    3.8389   -0.7013    0.0000 C   0  0  0  0  0  0  0  0  0  0  0  0
    2.5223    1.5995    0.0000 C   0  0  0  0  0  0  0  0  0  0  0  0
    2.5223   -2.9899    0.0000 C   0  0  0  0  0  0  0  0  0  0  0  0
    3.8019   -2.1901    0.0000 C   0  0  0  0  0  0  0  0  0  0  0  0
    3.8019    2.3870    0.0000 O   0  0  0  0  0  0  0  0  0  0  0  0
  1  2  1  0
  2  3  2  0
  2  4  1  0
  3  5  1  0
  3  6  1  0
  4  7  2  0
  5  8  2  0
  6  9  1  0
  7  8  1  0
M  END
>  <Structure No>
23

>  <Molecule Name>
2-Iodobenzylic alcohol

>  <PubChem CID>
107629

>  <SMILES>
OCc(cccc1)c1I

>  <InChIKey>
WZCXOBMFBKSSFA-UHFFFAOYSA-N

>  <Molecular Formula>
C7H7OI

>  <Target Organism>
Anopheles spp.

>  <Reference DOI>
10.1186/s13071-017-2122-8

>  <Activity Label>
1

>  <Repellency>
Active

>  <IUPAC>
(2-iodophenyl)methanol

>  <Common name>
2-Iodobenzylic alcohol

$$$$
Compound 24
     RDKit          2D

  9  9  0  0  0  0  0  0  0  0999 V2000
    0.0000    0.0000    0.0000 O   0  0  0  0  0  0  0  0  0  0  0  0
    1.2899    0.8091    0.0000 N   0  0  0  0  0  0  0  0  0  0  0  0
    2.5799    0.0586    0.0000 C   0  0  0  0  0  0  0  0  0  0  0  0
    3.8699    0.8795    0.0000 C   0  0  0  0  0  0  0  0  0  0  0  0
    2.5447   -1.4306    0.0000 C   0  0  0  0  0  0  0  0  0  0  0  0
    5.1598    0.1289    0.0000 C   0  0  0  0  0  0  0  0  0  0  0  0
    3.8347   -2.1577    0.0000 C   0  0  0  0  0  0  0  0  0  0  0  0
    5.1247   -1.3603    0.0000 C   0  0  0  0  0  0  0  0  0  0  0  0
    6.4146   -2.0991    0.0000 C   0  0  0  0  0  0  0  0  0  0  0  0
  1  2  1  0
  2  3  2  3
  3  4  1  0
  3  5  1  0
  4  6  1  0
  5  7  1  0
  6  8  1  0
  8  9  1  0
  7  8  1  0
M  END
>  <Structure No>
24

>  <Molecule Name>
4-Methylcyclohexanone oxime

>  <PubChem CID>
236590

>  <SMILES>
CC(CC1)CCC1=NO

>  <InChIKey>
XQARYSVUDNOHMA-UHFFFAOYSA-N

>  <Molecular Formula>
C7H13NO

>  <Target Organism>
Aedes aegypti

>  <Reference DOI>
10.3390/toxics11100837

>  <Activity Label>
1

>  <Repellency>
Active

>  <IUPAC>
N-(4-methylcyclohexylidene)hydroxylamine

>  <Common name>
4-Methylcyclohexanone oxime

$$$$
Compound 25
     RDKit          2D

  0  0  0  0  0  0  0  0  0  0999 V3000
M  V30 BEGIN CTAB
M  V30 COUNTS 10 10 0 0 0
M  V30 BEGIN ATOM
M  V30 1 C 0.000000 0.000000 0.000000 0
M  V30 2 C 1.141100 0.793800 0.000000 0
M  V30 3 C -1.364300 0.793800 0.000000 0
M  V30 4 C -0.111600 -1.351900 0.000000 0
M  V30 5 C 1.029400 2.369000 0.000000 0
M  V30 6 C -1.476000 2.369000 0.000000 0
M  V30 7 C -0.334800 3.162900 0.000000 0
M  V30 8 C -0.446500 4.738100 0.000000 0
M  V30 9 C -1.810900 5.531900 0.000000 0
M  V30 10 C 0.694500 5.531900 0.000000 0
M  V30 END ATOM
M  V30 BEGIN BOND
M  V30 1 2 1 2
M  V30 2 1 1 3
M  V30 3 1 1 4
M  V30 4 1 2 5
M  V30 5 1 3 6
M  V30 6 1 5 7
M  V30 7 1 7 8 CFG=1
M  V30 8 2 8 9
M  V30 9 1 8 10
M  V30 10 1 6 7
M  V30 END BOND
M  V30 BEGIN COLLECTION
M  V30 MDLV30/STEABS ATOMS=(1 7)
M  V30 END COLLECTION
M  V30 END CTAB
M  END
>  <Structure No>
25

>  <Molecule Name>
(+)-Limonene

>  <PubChem CID>
440917

>  <SMILES>
CC([C@H]1CC=C(C)CC1)=C

>  <InChIKey>
XMGQYMWWDOXHJM-JTQLQIEISA-N

>  <Molecular Formula>
C10H16

>  <Target Organism>
Tribolium confusum

>  <Reference DOI>
10.1007/s13744-016-0402-1

>  <Activity Label>
1

>  <Repellency>
Active

>  <IUPAC>
(4R)-1-methyl-4-prop-1-en-2-ylcyclohexene

>  <Common name>
(+)-Limonene

$$$$
Compound 26
     RDKit          2D

 10 10  0  0  0  0  0  0  0  0999 V2000
    0.0000    0.0000    0.0000 C   0  0  0  0  0  0  0  0  0  0  0  0
   -0.0119   -1.4931    0.0000 C   0  0  0  0  0  0  0  0  0  0  0  0
   -1.3140    0.7525    0.0000 C   0  0  0  0  0  0  0  0  0  0  0  0
    1.2901    0.7525    0.0000 C   0  0  0  0  0  0  0  0  0  0  0  0
    1.2781   -2.2457    0.0000 C   0  0  0  0  0  0  0  0  0  0  0  0
   -1.3259    2.2696    0.0000 C   0  0  0  0  0  0  0  0  0  0  0  0
   -2.6280    0.0000    0.0000 C   0  0  0  0  0  0  0  0  0  0  0  0
    2.5802    0.0000    0.0000 C   0  0  0  0  0  0  0  0  0  0  0  0
    2.5682   -1.4931    0.0000 C   0  0  0  0  0  0  0  0  0  0  0  0
    3.8584   -2.2457    0.0000 C   0  0  0  0  0  0  0  0  0  0  0  0
  1  2  2  0
  1  3  1  0
  1  4  1  0
  2  5  1  0
  3  6  1  0
  3  7  1  0
  4  8  1  0
  5  9  2  0
  9 10  1  0
  8  9  1  0
M  END
>  <Structure No>
26

>  <Molecule Name>
Alpha-Terpinene

>  <PubChem CID>
7462

>  <SMILES>
CC(C)C1=CC=C(C)CC1

>  <InChIKey>
YHQGMYUVUMAZJR-UHFFFAOYSA-N

>  <Molecular Formula>
C10H16

>  <Target Organism>
Haemaphysalis longicornis

>  <Reference DOI>
10.1016/j.aspen.2024.102300

>  <Activity Label>
1

>  <Repellency>
Active

>  <IUPAC>
1-methyl-4-propan-2-ylcyclohexa-1,3-diene

>  <Common name>
Alpha-Terpinene

$$$$
Compound 27
     RDKit          2D

 10 10  0  0  0  0  0  0  0  0999 V2000
    0.0000    0.0000    0.0000 O   0  0  0  0  0  0  0  0  0  0  0  0
   -1.3386   -0.6924    0.0000 C   0  0  0  0  0  0  0  0  0  0  0  0
    1.2694   -0.6924    0.0000 C   0  0  0  0  0  0  0  0  0  0  0  0
   -2.6773    0.1154    0.0000 C   0  0  0  0  0  0  0  0  0  0  0  0
   -1.3733   -2.1580    0.0000 C   0  0  0  0  0  0  0  0  0  0  0  0
   -4.0160   -0.5770    0.0000 C   0  0  0  0  0  0  0  0  0  0  0  0
   -2.7120   -2.8505    0.0000 C   0  0  0  0  0  0  0  0  0  0  0  0
   -4.0507   -2.0426    0.0000 C   0  0  0  0  0  0  0  0  0  0  0  0
   -5.3894   -2.7351    0.0000 C   0  0  0  0  0  0  0  0  0  0  0  0
   -5.4240   -4.2007    0.0000 O   0  0  0  0  0  0  0  0  0  0  0  0
  1  2  1  0
  1  3  1  0
  2  4  2  0
  2  5  1  0
  4  6  1  0
  5  7  2  0
  6  8  2  0
  8  9  1  0
  9 10  1  0
  7  8  1  0
M  END
>  <Structure No>
27

>  <Molecule Name>
4-Methoxybenzyl alcohol

>  <PubChem CID>
7738

>  <SMILES>
COc1ccc(CO)cc1

>  <InChIKey>
MSHFRERJPWKJFX-UHFFFAOYSA-N

>  <Molecular Formula>
C8H10O2

>  <Target Organism>
Aedes aegypti

>  <Reference DOI>
10.3390/toxics11100837

>  <Activity Label>
1

>  <Repellency>
Active

>  <IUPAC>
(4-methoxyphenyl)methanol

>  <Common name>
4-Methoxybenzyl alcohol

$$$$
Compound 28
     RDKit          2D

 10 10  0  0  0  0  0  0  0  0999 V2000
    0.0000    0.0000    0.0000 O   0  0  0  0  0  0  0  0  0  0  0  0
   -1.3233   -0.7218    0.0000 C   0  0  0  0  0  0  0  0  0  0  0  0
    1.2511   -0.7218    0.0000 C   0  0  0  0  0  0  0  0  0  0  0  0
   -2.6466    0.0481    0.0000 C   0  0  0  0  0  0  0  0  0  0  0  0
   -1.3594   -2.1774    0.0000 C   0  0  0  0  0  0  0  0  0  0  0  0
   -3.9699   -0.6736    0.0000 C   0  0  0  0  0  0  0  0  0  0  0  0
   -2.6827    1.5759    0.0000 C   0  0  0  0  0  0  0  0  0  0  0  0
   -2.6827   -2.8992    0.0000 C   0  0  0  0  0  0  0  0  0  0  0  0
   -4.0060   -2.1293    0.0000 C   0  0  0  0  0  0  0  0  0  0  0  0
   -4.0060    2.3458    0.0000 O   0  0  0  0  0  0  0  0  0  0  0  0
  1  2  1  0
  1  3  1  0
  2  4  2  0
  2  5  1  0
  4  6  1  0
  4  7  1  0
  5  8  2  0
  6  9  2  0
  7 10  1  0
  8  9  1  0
M  END
>  <Structure No>
28

>  <Molecule Name>
2-Methoxybenzyl alcohol

>  <PubChem CID>
69154

>  <SMILES>
COc1c(CO)cccc1

>  <InChIKey>
WYLYBQSHRJMURN-UHFFFAOYSA-N

>  <Molecular Formula>
C8H10O2

>  <Target Organism>
Aedes aegypti

>  <Reference DOI>
10.3390/toxics11100837

>  <Activity Label>
1

>  <Repellency>
Active

>  <IUPAC>
(2-methoxyphenyl)methanol

>  <Common name>
2-Methoxybenzyl alcohol

$$$$
Compound 29
     RDKit          2D

 10 10  0  0  0  0  0  0  0  0999 V2000
    0.0000    0.0000    0.0000 O   0  0  0  0  0  0  0  0  0  0  0  0
   -0.0463   -1.4730    0.0000 C   0  0  0  0  0  0  0  0  0  0  0  0
    1.2758    0.8119    0.0000 C   0  0  0  0  0  0  0  0  0  0  0  0
   -1.4150   -2.1921    0.0000 C   0  0  0  0  0  0  0  0  0  0  0  0
    1.2294   -2.1921    0.0000 C   0  0  0  0  0  0  0  0  0  0  0  0
   -2.7836   -1.3686    0.0000 O   0  0  0  0  0  0  0  0  0  0  0  0
   -1.4614   -3.6651    0.0000 C   0  0  0  0  0  0  0  0  0  0  0  0
    1.1830   -3.6651    0.0000 C   0  0  0  0  0  0  0  0  0  0  0  0
   -0.1855   -4.3727    0.0000 C   0  0  0  0  0  0  0  0  0  0  0  0
    2.4589   -4.3727    0.0000 C   0  0  0  0  0  0  0  0  0  0  0  0
  1  2  1  0
  1  3  1  0
  2  4  2  0
  2  5  1  0
  4  6  1  0
  4  7  1  0
  5  8  2  0
  7  9  2  0
  8 10  1  0
  8  9  1  0
M  END
>  <Structure No>
29

>  <Molecule Name>
2-Methoxy-4-Methylphenol

>  <PubChem CID>
7144

>  <SMILES>
Cc(cc1)cc(OC)c1O

>  <InChIKey>
PETRWTHZSKVLRE-UHFFFAOYSA-N

>  <Molecular Formula>
C8H10O2

>  <Target Organism>
Glossina morsitans morsitans

>  <Reference DOI>
10.1007/s10886-007-9272-7

>  <Activity Label>
1

>  <Repellency>
Active

>  <IUPAC>
2-methoxy-4-methylphenol

>  <Common name>
2-Methoxy-4-Methylphenol

$$$$
Compound 30
     RDKit          2D

 10 10  0  0  0  0  0  0  0  0999 V2000
    0.0000    0.0000    0.0000 O   0  0  0  0  0  0  0  0  0  0  0  0
   -1.4609   -0.6327    0.0000 C   0  0  0  0  0  0  0  0  0  0  0  0
   -1.5645   -2.0821    0.0000 C   0  0  0  0  0  0  0  0  0  0  0  0
   -3.0255   -2.7149    0.0000 C   0  0  0  0  0  0  0  0  0  0  0  0
   -3.1290   -4.1643    0.0000 C   0  0  0  0  0  0  0  0  0  0  0  0
   -1.8751   -4.8086    0.0000 C   0  0  0  0  0  0  0  0  0  0  0  0
   -4.5900   -4.8086    0.0000 C   0  0  0  0  0  0  0  0  0  0  0  0
   -1.9786   -6.2580    0.0000 C   0  0  0  0  0  0  0  0  0  0  0  0
   -4.6935   -6.2580    0.0000 C   0  0  0  0  0  0  0  0  0  0  0  0
   -3.4396   -6.8908    0.0000 C   0  0  0  0  0  0  0  0  0  0  0  0
  1  2  2  0
  2  3  1  0
  3  4  2  0
  4  5  1  0
  5  6  2  0
  5  7  1  0
  6  8  1  0
  7  9  2  0
  8 10  2  0
  9 10  1  0
M  END
>  <Structure No>
30

>  <Molecule Name>
CINNAMALDEHYDE; (E)-cinnamaldehyde

>  <PubChem CID>
637511

>  <SMILES>
O=C/C=C/c1ccccc1; C1=CC=C(C=C1)/C=C/C=O

>  <InChIKey>
KJPRLNWUNMBNBZ-QPJJXVBHSA-N

>  <Molecular Formula>
C9H8O

>  <Target Organism>
Anopheles spp.; Aedes aegypti

>  <Reference DOI>
10.1186/s13071-017-2122-8; 10.1002/ps.1268

>  <Activity Label>
1

>  <Repellency>
Active

>  <IUPAC>
(E)-3-phenylprop-2-enal

>  <Common name>
CINNAMALDEHYDE; (E)-cinnamaldehyde

$$$$
Compound 31
     RDKit          2D

 10 10  0  0  0  0  0  0  0  0999 V2000
    0.0000    0.0000    0.0000 O   0  0  0  0  0  0  0  0  0  0  0  0
    1.2691    0.7687    0.0000 C   0  0  0  0  0  0  0  0  0  0  0  0
    2.5382    0.0244    0.0000 C   0  0  0  0  0  0  0  0  0  0  0  0
    3.8073    0.7931    0.0000 C   0  0  0  0  0  0  0  0  0  0  0  0
    3.7707    2.3429    0.0000 C   0  0  0  0  0  0  0  0  0  0  0  0
    5.0764    0.0610    0.0000 C   0  0  0  0  0  0  0  0  0  0  0  0
    5.0398    3.1239    0.0000 C   0  0  0  0  0  0  0  0  0  0  0  0
    6.3455    0.8298    0.0000 C   0  0  0  0  0  0  0  0  0  0  0  0
    6.3089    2.3795    0.0000 C   0  0  0  0  0  0  0  0  0  0  0  0
    5.0032    4.6737    0.0000 C   0  0  0  0  0  0  0  0  0  0  0  0
  1  2  1  0
  2  3  1  0
  3  4  1  0
  4  5  2  0
  4  6  1  0
  5  7  1  0
  6  8  2  0
  7  9  2  0
  7 10  1  0
  8  9  1  0
M  END
>  <Structure No>
31

>  <Molecule Name>
3-Methylbenzeneethanol

>  <PubChem CID>
74648

>  <SMILES>
Cc1cccc(CCO)c1

>  <InChIKey>
KWHVBVJDKLSOTB-UHFFFAOYSA-N

>  <Molecular Formula>
C9H12O

>  <Target Organism>
Aedes aegypti

>  <Reference DOI>
10.3390/toxics11100837

>  <Activity Label>
1

>  <Repellency>
Active

>  <IUPAC>
2-(3-methylphenyl)ethanol

>  <Common name>
3-Methylbenzeneethanol

$$$$
Compound 32
     RDKit          2D

 10 10  0  0  0  0  0  0  0  0999 V2000
    0.0000    0.0000    0.0000 O   0  0  0  0  0  0  0  0  0  0  0  0
    1.2668    0.7673    0.0000 C   0  0  0  0  0  0  0  0  0  0  0  0
    2.5336    0.0243    0.0000 C   0  0  0  0  0  0  0  0  0  0  0  0
    3.8004    0.7917    0.0000 C   0  0  0  0  0  0  0  0  0  0  0  0
    3.7639    2.3387    0.0000 C   0  0  0  0  0  0  0  0  0  0  0  0
    5.0672    0.0487    0.0000 C   0  0  0  0  0  0  0  0  0  0  0  0
    5.0307    3.1183    0.0000 C   0  0  0  0  0  0  0  0  0  0  0  0
    2.4240    3.1183    0.0000 C   0  0  0  0  0  0  0  0  0  0  0  0
    6.3340    0.8161    0.0000 C   0  0  0  0  0  0  0  0  0  0  0  0
    6.2975    2.3874    0.0000 C   0  0  0  0  0  0  0  0  0  0  0  0
  1  2  1  0
  2  3  1  0
  3  4  1  0
  4  5  2  0
  4  6  1  0
  5  7  1  0
  5  8  1  0
  6  9  2  0
  7 10  2  0
  9 10  1  0
M  END
>  <Structure No>
32

>  <Molecule Name>
2-Methylphenethyl alcohol

>  <PubChem CID>
88267

>  <SMILES>
Cc1c(CCO)cccc1

>  <InChIKey>
RUGISKODRCWQNE-UHFFFAOYSA-N

>  <Molecular Formula>
C9H12O

>  <Target Organism>
Aedes aegypti

>  <Reference DOI>
10.3390/toxics11100837

>  <Activity Label>
1

>  <Repellency>
Active

>  <IUPAC>
2-(2-methylphenyl)ethanol

>  <Common name>
2-Methylphenethyl alcohol

$$$$
Compound 33
     RDKit          2D

 10 10  0  0  0  0  0  0  0  0999 V2000
    0.0000    0.0000    0.0000 O   0  0  0  0  0  0  0  0  0  0  0  0
    1.1594    0.9562    0.0000 C   0  0  0  0  0  0  0  0  0  0  0  0
   -1.3028    0.9562    0.0000 C   0  0  0  0  0  0  0  0  0  0  0  0
    0.6095    2.4742    0.0000 C   0  0  0  0  0  0  0  0  0  0  0  0
    2.5340    0.5498    0.0000 C   0  0  0  0  0  0  0  0  0  0  0  0
   -0.8964    2.4742    0.0000 C   0  0  0  0  0  0  0  0  0  0  0  0
    2.7850   -0.8725    0.0000 C   0  0  0  0  0  0  0  0  0  0  0  0
    4.1596   -1.2789    0.0000 C   0  0  0  0  0  0  0  0  0  0  0  0
    4.4106   -2.7013    0.0000 C   0  0  0  0  0  0  0  0  0  0  0  0
    5.7851   -3.1077    0.0000 C   0  0  0  0  0  0  0  0  0  0  0  0
  1  2  1  0
  1  3  1  0
  2  4  2  0
  2  5  1  0
  3  6  2  0
  5  7  1  0
  7  8  1  0
  8  9  1  0
  9 10  1  0
  4  6  1  0
M  END
>  <Structure No>
33

>  <Molecule Name>
2-Pentylfuran

>  <PubChem CID>
19602

>  <SMILES>
CCCCCc1ccc[o]1

>  <InChIKey>
YVBAUDVGOFCUSG-UHFFFAOYSA-N

>  <Molecular Formula>
C9H14O

>  <Target Organism>
Drosophila suzukii

>  <Reference DOI>
10.1002/ps.6196

>  <Activity Label>
1

>  <Repellency>
Active

>  <IUPAC>
2-pentylfuran

>  <Common name>
2-Pentylfuran

$$$$
Compound 34
     RDKit          2D

 10 10  0  0  0  0  0  0  0  0999 V2000
    0.0000    0.0000    0.0000 O   0  0  0  0  0  0  0  0  0  0  0  0
    1.2590    0.7748    0.0000 C   0  0  0  0  0  0  0  0  0  0  0  0
    1.2227    2.3123    0.0000 C   0  0  0  0  0  0  0  0  0  0  0  0
    2.5181    0.0363    0.0000 C   0  0  0  0  0  0  0  0  0  0  0  0
    2.4817    3.0992    0.0000 C   0  0  0  0  0  0  0  0  0  0  0  0
    3.7771    0.8232    0.0000 C   0  0  0  0  0  0  0  0  0  0  0  0
    3.7408    2.3607    0.0000 C   0  0  0  0  0  0  0  0  0  0  0  0
    2.4454    4.6367    0.0000 C   0  0  0  0  0  0  0  0  0  0  0  0
    3.7045    5.4115    0.0000 C   0  0  0  0  0  0  0  0  0  0  0  0
    1.1137    5.4115    0.0000 C   0  0  0  0  0  0  0  0  0  0  0  0
  1  2  1  0
  2  3  2  0
  2  4  1  0
  3  5  1  0
  4  6  2  0
  5  7  2  0
  5  8  1  0
  8  9  1  0
  8 10  1  0
  6  7  1  0
M  END
>  <Structure No>
34

>  <Molecule Name>
3-isopropilfenol

>  <PubChem CID>
12059

>  <SMILES>
CC(C)c1cccc(O)c1

>  <InChIKey>
VLJSLTNSFSOYQR-UHFFFAOYSA-N

>  <Molecular Formula>
C9H12O

>  <Target Organism>
Anopheles spp.

>  <Reference DOI>
10.1186/s13071-017-2122-8

>  <Activity Label>
1

>  <Repellency>
Active

>  <IUPAC>
3-propan-2-ylphenol

>  <Common name>
3-isopropilfenol

$$$$
Compound 35
     RDKit          2D

 10 10  0  0  0  0  0  0  0  0999 V2000
    0.0000    0.0000    0.0000 Cl  0  0  0  0  0  0  0  0  0  0  0  0
   -1.3244   -0.6964    0.0000 C   0  0  0  0  0  0  0  0  0  0  0  0
   -2.6489    0.0799    0.0000 C   0  0  0  0  0  0  0  0  0  0  0  0
   -1.3587   -2.1465    0.0000 C   0  0  0  0  0  0  0  0  0  0  0  0
   -3.9733   -0.6165    0.0000 C   0  0  0  0  0  0  0  0  0  0  0  0
   -2.6831   -2.8430    0.0000 C   0  0  0  0  0  0  0  0  0  0  0  0
   -4.0076   -2.0666    0.0000 C   0  0  0  0  0  0  0  0  0  0  0  0
   -5.3321   -2.7631    0.0000 C   0  0  0  0  0  0  0  0  0  0  0  0
   -6.6565   -1.9752    0.0000 C   0  0  0  0  0  0  0  0  0  0  0  0
   -7.9810   -2.6831    0.0000 O   0  0  0  0  0  0  0  0  0  0  0  0
  1  2  1  0
  2  3  2  0
  2  4  1  0
  3  5  1  0
  4  6  2  0
  5  7  2  0
  7  8  1  0
  8  9  1  0
  9 10  1  0
  6  7  1  0
M  END
>  <Structure No>
35

>  <Molecule Name>
p-Chlorophenethylic alcohol

>  <PubChem CID>
74647

>  <SMILES>
OCCc(cc1)ccc1Cl

>  <InChIKey>
HZFRKZWBVUJYDA-UHFFFAOYSA-N

>  <Molecular Formula>
C8H9OCl

>  <Target Organism>
Aedes aegypti

>  <Reference DOI>
10.3390/toxics11100837

>  <Activity Label>
1

>  <Repellency>
Active

>  <IUPAC>
2-(4-chlorophenyl)ethanol

>  <Common name>
p-Chlorophenethylic alcohol

$$$$
Compound 36
     RDKit          2D

 10 10  0  0  0  0  0  0  0  0999 V2000
    0.0000    0.0000    0.0000 Cl  0  0  0  0  0  0  0  0  0  0  0  0
    1.2775   -0.7370    0.0000 C   0  0  0  0  0  0  0  0  0  0  0  0
    2.5550    0.0368    0.0000 C   0  0  0  0  0  0  0  0  0  0  0  0
    1.2406   -2.2233    0.0000 C   0  0  0  0  0  0  0  0  0  0  0  0
    3.8325   -0.7001    0.0000 C   0  0  0  0  0  0  0  0  0  0  0  0
    2.5181    1.5968    0.0000 C   0  0  0  0  0  0  0  0  0  0  0  0
    2.5181   -2.9603    0.0000 C   0  0  0  0  0  0  0  0  0  0  0  0
    3.7956   -2.1865    0.0000 C   0  0  0  0  0  0  0  0  0  0  0  0
    3.7956    2.3707    0.0000 C   0  0  0  0  0  0  0  0  0  0  0  0
    3.7588    3.9307    0.0000 O   0  0  0  0  0  0  0  0  0  0  0  0
  1  2  1  0
  2  3  2  0
  2  4  1  0
  3  5  1  0
  3  6  1  0
  4  7  2  0
  5  8  2  0
  6  9  1  0
  9 10  1  0
  7  8  1  0
M  END
>  <Structure No>
36

>  <Molecule Name>
o-Chlorophenethylic alcohol

>  <PubChem CID>
88266

>  <SMILES>
OCCc(cccc1)c1Cl

>  <InChIKey>
IWNHTCBFRSCBQK-UHFFFAOYSA-N

>  <Molecular Formula>
C8H9OCl

>  <Target Organism>
Anopheles spp.

>  <Reference DOI>
10.1186/s13071-017-2122-8

>  <Activity Label>
1

>  <Repellency>
Active

>  <IUPAC>
2-(2-chlorophenyl)ethanol

>  <Common name>
o-Chlorophenethylic alcohol

$$$$
Compound 37
     RDKit          2D

 10 10  0  0  0  0  0  0  0  0999 V2000
    0.0000    0.0000    0.0000 Br  0  0  0  0  0  0  0  0  0  0  0  0
   -1.3244   -0.6964    0.0000 C   0  0  0  0  0  0  0  0  0  0  0  0
   -2.6489    0.0799    0.0000 C   0  0  0  0  0  0  0  0  0  0  0  0
   -1.3587   -2.1465    0.0000 C   0  0  0  0  0  0  0  0  0  0  0  0
   -3.9733   -0.6165    0.0000 C   0  0  0  0  0  0  0  0  0  0  0  0
   -2.6831   -2.8430    0.0000 C   0  0  0  0  0  0  0  0  0  0  0  0
   -4.0076   -2.0666    0.0000 C   0  0  0  0  0  0  0  0  0  0  0  0
   -5.3321   -2.7631    0.0000 C   0  0  0  0  0  0  0  0  0  0  0  0
   -6.6565   -1.9752    0.0000 C   0  0  0  0  0  0  0  0  0  0  0  0
   -7.9810   -2.6831    0.0000 O   0  0  0  0  0  0  0  0  0  0  0  0
  1  2  1  0
  2  3  2  0
  2  4  1  0
  3  5  1  0
  4  6  2  0
  5  7  2  0
  7  8  1  0
  8  9  1  0
  9 10  1  0
  6  7  1  0
M  END
>  <Structure No>
37

>  <Molecule Name>
2-(4-Bromophenyl)ethanol

>  <PubChem CID>
72851

>  <SMILES>
OCCc(cc1)ccc1Br

>  <InChIKey>
PMOSJSPFNDUAFY-UHFFFAOYSA-N

>  <Molecular Formula>
C8H9OBr

>  <Target Organism>
Aedes aegypti

>  <Reference DOI>
10.3390/toxics11100837

>  <Activity Label>
1

>  <Repellency>
Active

>  <IUPAC>
2-(4-bromophenyl)ethanol

>  <Common name>
2-(4-Bromophenyl)ethanol

$$$$
Compound 38
     RDKit          2D

 10 10  0  0  0  0  0  0  0  0999 V2000
    0.0000    0.0000    0.0000 Br  0  0  0  0  0  0  0  0  0  0  0  0
    1.2775   -0.7370    0.0000 C   0  0  0  0  0  0  0  0  0  0  0  0
    2.5550    0.0368    0.0000 C   0  0  0  0  0  0  0  0  0  0  0  0
    1.2406   -2.2233    0.0000 C   0  0  0  0  0  0  0  0  0  0  0  0
    3.8325   -0.7001    0.0000 C   0  0  0  0  0  0  0  0  0  0  0  0
    2.5181    1.5968    0.0000 C   0  0  0  0  0  0  0  0  0  0  0  0
    2.5181   -2.9603    0.0000 C   0  0  0  0  0  0  0  0  0  0  0  0
    3.7956   -2.1865    0.0000 C   0  0  0  0  0  0  0  0  0  0  0  0
    3.7956    2.3707    0.0000 C   0  0  0  0  0  0  0  0  0  0  0  0
    3.7588    3.9307    0.0000 O   0  0  0  0  0  0  0  0  0  0  0  0
  1  2  1  0
  2  3  2  0
  2  4  1  0
  3  5  1  0
  3  6  1  0
  4  7  2  0
  5  8  2  0
  6  9  1  0
  9 10  1  0
  7  8  1  0
M  END
>  <Structure No>
38

>  <Molecule Name>
2-(2-Bromophenyl)ethan-1-ol

>  <PubChem CID>
2734089

>  <SMILES>
OCCc(cccc1)c1Br

>  <InChIKey>
ADLOWZRDUHSVRU-UHFFFAOYSA-N

>  <Molecular Formula>
C8H9OBr

>  <Target Organism>
Anopheles spp.

>  <Reference DOI>
10.1186/s13071-017-2122-8

>  <Activity Label>
1

>  <Repellency>
Active

>  <IUPAC>
2-(2-bromophenyl)ethanol

>  <Common name>
2-(2-Bromophenyl)ethan-1-ol

$$$$
Compound 39
     RDKit          2D

 10  9  0  0  0  0  0  0  0  0999 V2000
    0.0000    0.0000    0.0000 C   0  0  0  0  0  0  0  0  0  0  0  0
   -1.4087    0.8747    0.0000 C   0  0  0  0  0  0  0  0  0  0  0  0
   -0.0795   -1.4428    0.0000 C   0  0  0  0  0  0  0  0  0  0  0  0
    1.2496    0.8747    0.0000 C   0  0  0  0  0  0  0  0  0  0  0  0
   -2.8174    0.2158    0.0000 C   0  0  0  0  0  0  0  0  0  0  0  0
    2.4993    0.2158    0.0000 C   0  0  0  0  0  0  0  0  0  0  0  0
    3.7490    1.0906    0.0000 C   0  0  0  0  0  0  0  0  0  0  0  0
    4.9987    0.4430    0.0000 C   0  0  0  0  0  0  0  0  0  0  0  0
    6.2484    1.3178    0.0000 C   0  0  0  0  0  0  0  0  0  0  0  0
    4.9191   -0.9997    0.0000 C   0  0  0  0  0  0  0  0  0  0  0  0
  1  2  1  0
  1  3  2  0
  1  4  1  0
  2  5  2  0
  4  6  1  0
  6  7  1  0
  7  8  2  0
  8  9  1  0
  8 10  1  0
M  END
>  <Structure No>
39

>  <Molecule Name>
Myrcene

>  <PubChem CID>
31253

>  <SMILES>
CC(C)=CCCC(C=C)=C

>  <InChIKey>
UAHWPYUMFXYFJY-UHFFFAOYSA-N

>  <Molecular Formula>
C10H16

>  <Target Organism>
Anopheles spp.

>  <Reference DOI>
10.1186/s13071-017-2122-8

>  <Activity Label>
1

>  <Repellency>
Active

>  <IUPAC>
7-methyl-3-methylideneocta-1,6-diene

>  <Common name>
Myrcene

$$$$
Compound 40
     RDKit          2D

 10  9  0  0  0  0  0  0  0  0999 V2000
    0.0000    0.0000    0.0000 C   0  0  0  0  0  0  0  0  0  0  0  0
   -0.0678   -1.4364    0.0000 C   0  0  0  0  0  0  0  0  0  0  0  0
   -1.3799    0.8483    0.0000 C   0  0  0  0  0  0  0  0  0  0  0  0
    1.2441    0.8483    0.0000 C   0  0  0  0  0  0  0  0  0  0  0  0
   -2.7598    0.1922    0.0000 C   0  0  0  0  0  0  0  0  0  0  0  0
    2.4883    0.1922    0.0000 C   0  0  0  0  0  0  0  0  0  0  0  0
   -4.1397    1.0405    0.0000 C   0  0  0  0  0  0  0  0  0  0  0  0
   -2.8276   -1.2441    0.0000 C   0  0  0  0  0  0  0  0  0  0  0  0
    3.7325    1.0405    0.0000 C   0  0  0  0  0  0  0  0  0  0  0  0
    2.4205   -1.2441    0.0000 C   0  0  0  0  0  0  0  0  0  0  0  0
  1  2  2  0
  1  3  1  0
  1  4  1  0
  3  5  1  0
  4  6  1  0
  5  7  1  0
  5  8  1  0
  6  9  1  0
  6 10  1  0
M  END
>  <Structure No>
40

>  <Molecule Name>
2,6-Dimethyl-4-methylideneheptane

>  <PubChem CID>
12697191

>  <SMILES>
CC(C)CC(CC(C)C)=C

>  <InChIKey>
JQPLCIWGQTUQDW-UHFFFAOYSA-N

>  <Molecular Formula>
C10H20

>  <Target Organism>
Aedes albopictus

>  <Reference DOI>
10.1021/acs.jafc.2c05537

>  <Activity Label>
1

>  <Repellency>
Active

>  <IUPAC>
2,6-dimethyl-4-methylideneheptane

>  <Common name>
2,6-Dimethyl-4-methylideneheptane

$$$$
Compound 41
     RDKit          2D

 10  9  0  0  0  0  0  0  0  0999 V2000
    0.0000    0.0000    0.0000 C   0  0  0  0  0  0  0  0  0  0  0  0
    1.2042    0.7644    0.0000 C   0  0  0  0  0  0  0  0  0  0  0  0
   -1.3298    0.7644    0.0000 C   0  0  0  0  0  0  0  0  0  0  0  0
   -2.6597    0.1047    0.0000 C   0  0  0  0  0  0  0  0  0  0  0  0
   -3.9896    0.8691    0.0000 C   0  0  0  0  0  0  0  0  0  0  0  0
   -5.3194    0.2094    0.0000 C   0  0  0  0  0  0  0  0  0  0  0  0
   -6.6493    0.9738    0.0000 C   0  0  0  0  0  0  0  0  0  0  0  0
   -7.9792    0.3141    0.0000 C   0  0  0  0  0  0  0  0  0  0  0  0
   -9.3090    1.0785    0.0000 C   0  0  0  0  0  0  0  0  0  0  0  0
  -10.6389    0.4188    0.0000 C   0  0  0  0  0  0  0  0  0  0  0  0
  1  2  2  0
  1  3  1  0
  3  4  1  0
  4  5  1  0
  5  6  1  0
  6  7  1  0
  7  8  1  0
  8  9  1  0
  9 10  1  0
M  END
>  <Structure No>
41

>  <Molecule Name>
1-Decene

>  <PubChem CID>
13381

>  <SMILES>
CCCCCCCCC=C

>  <InChIKey>
AFFLGGQVNFXPEV-UHFFFAOYSA-N

>  <Molecular Formula>
C10H20

>  <Target Organism>
Aedes albopictus

>  <Reference DOI>
10.1021/acs.jafc.2c05537

>  <Activity Label>
1

>  <Repellency>
Active

>  <IUPAC>
dec-1-ene

>  <Common name>
1-Decene

$$$$
Compound 42
     RDKit          2D

 10  9  0  0  0  0  0  0  0  0999 V2000
    0.0000    0.0000    0.0000 O   0  0  0  0  0  0  0  0  0  0  0  0
    0.7403    1.3351    0.0000 C   0  0  0  0  0  0  0  0  0  0  0  0
    2.0026    2.1119    0.0000 C   0  0  0  0  0  0  0  0  0  0  0  0
   -0.5947    2.1119    0.0000 C   0  0  0  0  0  0  0  0  0  0  0  0
    1.4807    0.0728    0.0000 C   0  0  0  0  0  0  0  0  0  0  0  0
    3.2649    1.3715    0.0000 C   0  0  0  0  0  0  0  0  0  0  0  0
    1.9662    3.6533    0.0000 C   0  0  0  0  0  0  0  0  0  0  0  0
   -1.9298    1.3715    0.0000 C   0  0  0  0  0  0  0  0  0  0  0  0
    3.2285   -0.0970    0.0000 O   0  0  0  0  0  0  0  0  0  0  0  0
    4.5272    2.1483    0.0000 C   0  0  0  0  0  0  0  0  0  0  0  0
  1  2  1  0
  2  3  1  0
  2  4  1  0
  2  5  1  0
  3  6  1  0
  3  7  1  0
  4  8  1  0
  6  9  1  0
  6 10  1  0
M  END
>  <Structure No>
42

>  <Molecule Name>
3,4-Dimethyl-2,4-hexanediol

>  <PubChem CID>
22323953

>  <SMILES>
CCC(C)(C(C)C(C)O)O

>  <InChIKey>
TWSGDKHAZBKYMM-UHFFFAOYSA-N

>  <Molecular Formula>
C8H18O2

>  <Target Organism>
Aedes aegypti

>  <Reference DOI>
10.3390/toxics11100837

>  <Activity Label>
1

>  <Repellency>
Active

>  <IUPAC>
3,4-dimethylhexane-2,4-diol

>  <Common name>
3,4-Dimethyl-2,4-hexanediol

$$$$
Compound 43
     RDKit          2D

  0  0  0  0  0  0  0  0  0  0999 V3000
M  V30 BEGIN CTAB
M  V30 COUNTS 10 9 0 0 0
M  V30 BEGIN ATOM
M  V30 1 O 0.000000 0.000000 0.000000 0
M  V30 2 C -0.036500 1.545700 0.000000 0
M  V30 3 C -1.375300 2.336800 0.000000 0
M  V30 4 C 1.229300 2.336800 0.000000 0
M  V30 5 O -2.714200 1.594400 0.000000 0
M  V30 6 C 2.495100 1.594400 0.000000 0
M  V30 7 C 3.760900 2.373400 0.000000 0
M  V30 8 C 5.026700 1.630900 0.000000 0
M  V30 9 C 6.292500 2.409900 0.000000 0
M  V30 10 C 7.558300 1.667400 0.000000 0
M  V30 END ATOM
M  V30 BEGIN BOND
M  V30 1 1 2 1 CFG=3
M  V30 2 1 2 3
M  V30 3 1 2 4
M  V30 4 1 3 5
M  V30 5 1 4 6
M  V30 6 1 6 7
M  V30 7 1 7 8
M  V30 8 1 8 9
M  V30 9 1 9 10
M  V30 END BOND
M  V30 BEGIN COLLECTION
M  V30 MDLV30/STERAC1 ATOMS=(1 2)
M  V30 END COLLECTION
M  V30 END CTAB
M  END
>  <Structure No>
43

>  <Molecule Name>
1,2-Octanediol

>  <PubChem CID>
14231

>  <SMILES>
CCCCCCC(CO)O

>  <InChIKey>
AEIJTFQOBWATKX-QMMMGPOBSA-N

>  <Molecular Formula>
C8H18O2

>  <Target Organism>
Aedes aegypti

>  <Reference DOI>
10.3390/toxics11100837

>  <Activity Label>
1

>  <Repellency>
Active

>  <IUPAC>
octane-1,2-diol

>  <Common name>
1,2-Octanediol

$$$$
Compound 44
     RDKit          2D

 10  9  0  0  0  0  0  0  0  0999 V2000
    0.0000    0.0000    0.0000 O   0  0  0  0  0  0  0  0  0  0  0  0
   -0.0344   -1.4570    0.0000 C   0  0  0  0  0  0  0  0  0  0  0  0
    1.2276   -2.1913    0.0000 C   0  0  0  0  0  0  0  0  0  0  0  0
   -1.3652   -2.1913    0.0000 C   0  0  0  0  0  0  0  0  0  0  0  0
    1.1931   -3.6484    0.0000 O   0  0  0  0  0  0  0  0  0  0  0  0
    2.4896   -1.3997    0.0000 C   0  0  0  0  0  0  0  0  0  0  0  0
   -2.6961   -1.3997    0.0000 C   0  0  0  0  0  0  0  0  0  0  0  0
   -4.0270   -2.1110    0.0000 C   0  0  0  0  0  0  0  0  0  0  0  0
   -5.3579   -1.3194    0.0000 C   0  0  0  0  0  0  0  0  0  0  0  0
   -6.6888   -2.0307    0.0000 C   0  0  0  0  0  0  0  0  0  0  0  0
  1  2  1  0
  2  3  1  0
  2  4  1  0
  3  5  1  0
  3  6  1  0
  4  7  1  0
  7  8  1  0
  8  9  1  0
  9 10  1  0
M  END
>  <Structure No>
44

>  <Molecule Name>
2,3-Octanediol

>  <PubChem CID>
242928

>  <SMILES>
CCCCCC(C(C)O)O

>  <InChIKey>
XMTUJCWABCYSIV-UHFFFAOYSA-N

>  <Molecular Formula>
C8H18O2

>  <Target Organism>
Aedes aegypti

>  <Reference DOI>
10.3390/toxics11100837

>  <Activity Label>
1

>  <Repellency>
Active

>  <IUPAC>
octane-2,3-diol

>  <Common name>
2,3-Octanediol

$$$$
Compound 45
     RDKit          2D

 10  9  0  0  0  0  0  0  0  0999 V2000
    0.0000    0.0000    0.0000 O   0  0  0  0  0  0  0  0  0  0  0  0
   -0.0347   -1.4724    0.0000 C   0  0  0  0  0  0  0  0  0  0  0  0
   -1.3797   -2.1797    0.0000 O   0  0  0  0  0  0  0  0  0  0  0  0
    1.2406   -2.1797    0.0000 C   0  0  0  0  0  0  0  0  0  0  0  0
   -2.7246   -1.3797    0.0000 C   0  0  0  0  0  0  0  0  0  0  0  0
    2.5159   -1.3797    0.0000 C   0  0  0  0  0  0  0  0  0  0  0  0
   -4.0696   -2.1101    0.0000 C   0  0  0  0  0  0  0  0  0  0  0  0
    3.7913   -2.1101    0.0000 C   0  0  0  0  0  0  0  0  0  0  0  0
    5.0667   -1.3101    0.0000 C   0  0  0  0  0  0  0  0  0  0  0  0
    3.7565   -3.5826    0.0000 C   0  0  0  0  0  0  0  0  0  0  0  0
  1  2  2  0
  2  3  1  0
  2  4  1  0
  3  5  1  0
  4  6  2  3
  5  7  1  0
  6  8  1  0
  8  9  1  0
  8 10  1  0
M  END
>  <Structure No>
45

>  <Molecule Name>
2-Pentenoic acid, 4-methyl-, ethyl ester

>  <PubChem CID>
566233

>  <SMILES>
CCOC(C=CC(C)C)=O

>  <InChIKey>
GNDHNYOKGXAMOS-UHFFFAOYSA-N

>  <Molecular Formula>
C8H14O2

>  <Target Organism>
Aedes aegypti

>  <Reference DOI>
10.3390/toxics11100837

>  <Activity Label>
1

>  <Repellency>
Active

>  <IUPAC>
ethyl 4-methylpent-2-enoate

>  <Common name>
2-Pentenoic acid, 4-methyl-, ethyl ester

$$$$
Compound 46
     RDKit          2D

 10  9  0  0  0  0  0  0  0  0999 V2000
    0.0000    0.0000    0.0000 O   0  0  0  0  0  0  0  0  0  0  0  0
   -0.0362   -1.4621    0.0000 C   0  0  0  0  0  0  0  0  0  0  0  0
   -1.3654   -2.1992    0.0000 C   0  0  0  0  0  0  0  0  0  0  0  0
    1.2204   -2.1992    0.0000 C   0  0  0  0  0  0  0  0  0  0  0  0
   -2.6947   -1.4259    0.0000 C   0  0  0  0  0  0  0  0  0  0  0  0
    2.4772   -1.4259    0.0000 C   0  0  0  0  0  0  0  0  0  0  0  0
   -4.0239   -2.1630    0.0000 O   0  0  0  0  0  0  0  0  0  0  0  0
   -2.7309    0.1087    0.0000 C   0  0  0  0  0  0  0  0  0  0  0  0
    3.7339   -2.1630    0.0000 C   0  0  0  0  0  0  0  0  0  0  0  0
    2.4409    0.1087    0.0000 C   0  0  0  0  0  0  0  0  0  0  0  0
  1  2  1  0
  2  3  1  0
  2  4  1  0
  3  5  1  0
  4  6  1  0
  5  7  1  0
  5  8  1  0
  6  9  1  0
  6 10  1  0
M  END
>  <Structure No>
46

>  <Molecule Name>
6-Methylheptane-2,4-diol

>  <PubChem CID>
349983

>  <SMILES>
CC(C)CC(CC(C)O)O

>  <InChIKey>
POWFRZFDXPVABI-UHFFFAOYSA-N

>  <Molecular Formula>
C8H18O2

>  <Target Organism>
Aedes aegypti

>  <Reference DOI>
10.3390/toxics11100837

>  <Activity Label>
1

>  <Repellency>
Active

>  <IUPAC>
6-methylheptane-2,4-diol

>  <Common name>
6-Methylheptane-2,4-diol

$$$$
Compound 47
     RDKit          2D

 10  9  0  0  0  0  0  0  0  0999 V2000
    0.0000    0.0000    0.0000 O   0  0  0  0  0  0  0  0  0  0  0  0
   -0.0361    1.5322    0.0000 C   0  0  0  0  0  0  0  0  0  0  0  0
    1.2185    2.3043    0.0000 C   0  0  0  0  0  0  0  0  0  0  0  0
   -1.3633    2.3043    0.0000 C   0  0  0  0  0  0  0  0  0  0  0  0
    2.4732    1.5684    0.0000 C   0  0  0  0  0  0  0  0  0  0  0  0
   -2.6904    1.5684    0.0000 C   0  0  0  0  0  0  0  0  0  0  0  0
    2.4370    0.1085    0.0000 O   0  0  0  0  0  0  0  0  0  0  0  0
    3.7280    2.3405    0.0000 C   0  0  0  0  0  0  0  0  0  0  0  0
   -4.0175    2.3405    0.0000 C   0  0  0  0  0  0  0  0  0  0  0  0
   -5.3446    1.6046    0.0000 C   0  0  0  0  0  0  0  0  0  0  0  0
  1  2  1  0
  2  3  1  0
  2  4  1  0
  3  5  1  0
  4  6  1  0
  5  7  1  0
  5  8  1  0
  6  9  1  0
  9 10  1  0
M  END
>  <Structure No>
47

>  <Molecule Name>
2,4-Octanediol

>  <PubChem CID>
3494075

>  <SMILES>
CCCCC(CC(C)O)O

>  <InChIKey>
HOWLAKMIIWUJEJ-UHFFFAOYSA-N

>  <Molecular Formula>
C8H18O2

>  <Target Organism>
Aedes aegypti

>  <Reference DOI>
10.3390/toxics11100837

>  <Activity Label>
1

>  <Repellency>
Active

>  <IUPAC>
octane-2,4-diol

>  <Common name>
2,4-Octanediol

$$$$
Compound 48
     RDKit          2D

 10  9  0  0  0  0  0  0  0  0999 V2000
    0.0000    0.0000    0.0000 O   0  0  0  0  0  0  0  0  0  0  0  0
   -0.1027   -1.4386    0.0000 C   0  0  0  0  0  0  0  0  0  0  0  0
    1.1418   -2.0781    0.0000 C   0  0  0  0  0  0  0  0  0  0  0  0
   -1.5528   -2.0781    0.0000 C   0  0  0  0  0  0  0  0  0  0  0  0
    2.3864   -1.1646    0.0000 C   0  0  0  0  0  0  0  0  0  0  0  0
    1.0390   -3.5168    0.0000 C   0  0  0  0  0  0  0  0  0  0  0  0
   -3.0029   -1.1646    0.0000 C   0  0  0  0  0  0  0  0  0  0  0  0
    3.6309   -1.7926    0.0000 O   0  0  0  0  0  0  0  0  0  0  0  0
    2.2836   -4.1562    0.0000 C   0  0  0  0  0  0  0  0  0  0  0  0
   -4.4531   -1.7926    0.0000 C   0  0  0  0  0  0  0  0  0  0  0  0
  1  2  1  0
  2  3  1  0
  2  4  1  0
  3  5  1  0
  3  6  1  0
  4  7  1  0
  5  8  1  0
  6  9  1  0
  7 10  1  0
M  END
>  <Structure No>
48

>  <Molecule Name>
2-Ethyl-1,3-Hexanediol

>  <PubChem CID>
7211

>  <SMILES>
CCCC(C(CC)CO)O

>  <InChIKey>
RWLALWYNXFYRGW-UHFFFAOYSA-N

>  <Molecular Formula>
C8H18O2

>  <Target Organism>
Aedes aegypti

>  <Reference DOI>
10.1007/978-981-15-9456-4_8

>  <Activity Label>
1

>  <Repellency>
Active

>  <IUPAC>
2-ethylhexane-1,3-diol

>  <Common name>
2-Ethyl-1,3-Hexanediol

$$$$
Compound 49
     RDKit          2D

 10  9  0  0  0  0  0  0  0  0999 V2000
    0.0000    0.0000    0.0000 O   0  0  0  0  0  0  0  0  0  0  0  0
   -1.3149   -0.6936    0.0000 C   0  0  0  0  0  0  0  0  0  0  0  0
   -2.6298    0.0621    0.0000 C   0  0  0  0  0  0  0  0  0  0  0  0
   -3.9447   -0.6315    0.0000 C   0  0  0  0  0  0  0  0  0  0  0  0
   -5.2596    0.1242    0.0000 C   0  0  0  0  0  0  0  0  0  0  0  0
   -6.5745   -0.5694    0.0000 C   0  0  0  0  0  0  0  0  0  0  0  0
   -7.8894    0.1863    0.0000 C   0  0  0  0  0  0  0  0  0  0  0  0
   -9.2043   -0.5073    0.0000 C   0  0  0  0  0  0  0  0  0  0  0  0
  -10.5192    0.2484    0.0000 C   0  0  0  0  0  0  0  0  0  0  0  0
  -11.8341   -0.4452    0.0000 C   0  0  0  0  0  0  0  0  0  0  0  0
  1  2  2  0
  2  3  1  0
  3  4  1  0
  4  5  1  0
  5  6  1  0
  6  7  1  0
  7  8  1  0
  8  9  1  0
  9 10  1  0
M  END
>  <Structure No>
49

>  <Molecule Name>
Nonanal

>  <PubChem CID>
31289

>  <SMILES>
CCCCCCCCC=O

>  <InChIKey>
GYHFUZHODSMOHU-UHFFFAOYSA-N

>  <Molecular Formula>
C9H18O

>  <Target Organism>
Aedes aegypti

>  <Reference DOI>
10.1371/annotation/1dc83f26-8045-4b63-8a86-24c7b71a7f79

>  <Activity Label>
1

>  <Repellency>
Active

>  <IUPAC>
nonanal

>  <Common name>
Nonanal

$$$$
Compound 50
     RDKit          2D

  0  0  0  0  0  0  0  0  0  0999 V3000
M  V30 BEGIN CTAB
M  V30 COUNTS 10 9 0 0 0
M  V30 BEGIN ATOM
M  V30 1 O 0.000000 0.000000 0.000000 0
M  V30 2 C -1.351900 -0.631600 0.000000 0
M  V30 3 C -2.703800 0.188300 0.000000 0
M  V30 4 C -4.055800 -0.443200 0.000000 0
M  V30 5 C -5.407700 0.376700 0.000000 0
M  V30 6 C -4.122200 -1.850500 0.000000 0
M  V30 7 C -6.759600 -0.254800 0.000000 0
M  V30 8 C -8.111600 -0.886500 0.000000 0
M  V30 9 C -7.590700 1.097000 0.000000 0
M  V30 10 C -6.128000 -1.473800 0.000000 0
M  V30 END ATOM
M  V30 BEGIN BOND
M  V30 1 2 1 2
M  V30 2 1 2 3
M  V30 3 1 3 4
M  V30 4 1 4 5
M  V30 5 1 4 6 CFG=1
M  V30 6 1 5 7
M  V30 7 1 7 8
M  V30 8 1 7 9
M  V30 9 1 7 10
M  V30 END BOND
M  V30 BEGIN COLLECTION
M  V30 MDLV30/STERAC1 ATOMS=(1 4)
M  V30 END COLLECTION
M  V30 END CTAB
M  END
>  <Structure No>
50

>  <Molecule Name>
3,5,5-trimethylhexanal

>  <PubChem CID>
21574

>  <SMILES>
CC(CC(C)(C)C)CC=O

>  <InChIKey>
WTPYRCJDOZVZON-MRVPVSSYSA-N

>  <Molecular Formula>
C9H18O

>  <Target Organism>
Aedes aegypti

>  <Reference DOI>
10.1371/annotation/1dc83f26-8045-4b63-8a86-24c7b71a7f79

>  <Activity Label>
1

>  <Repellency>
Active

>  <IUPAC>
3,5,5-trimethylhexanal

>  <Common name>
3,5,5-trimethylhexanal

$$$$
Compound 51
     RDKit          2D

 10  9  0  0  0  0  0  0  0  0999 V2000
    0.0000    0.0000    0.0000 O   0  0  0  0  0  0  0  0  0  0  0  0
   -0.0740    1.5682    0.0000 C   0  0  0  0  0  0  0  0  0  0  0  0
    1.1360    2.3708    0.0000 C   0  0  0  0  0  0  0  0  0  0  0  0
   -1.4323    2.3708    0.0000 C   0  0  0  0  0  0  0  0  0  0  0  0
    2.3461    1.6546    0.0000 C   0  0  0  0  0  0  0  0  0  0  0  0
   -2.7906    1.6546    0.0000 C   0  0  0  0  0  0  0  0  0  0  0  0
    3.5562    2.4449    0.0000 C   0  0  0  0  0  0  0  0  0  0  0  0
   -4.1489    2.4449    0.0000 C   0  0  0  0  0  0  0  0  0  0  0  0
    4.7663    1.7287    0.0000 C   0  0  0  0  0  0  0  0  0  0  0  0
   -5.5072    1.7287    0.0000 C   0  0  0  0  0  0  0  0  0  0  0  0
  1  2  2  0
  2  3  1  0
  2  4  1  0
  3  5  1  0
  4  6  1  0
  5  7  1  0
  6  8  1  0
  7  9  1  0
  8 10  1  0
M  END
>  <Structure No>
51

>  <Molecule Name>
nonan-5-one

>  <PubChem CID>
10405

>  <SMILES>
CCCCC(CCCC)=O

>  <InChIKey>
WSGCRAOTEDLMFQ-UHFFFAOYSA-N

>  <Molecular Formula>
C9H18O

>  <Target Organism>
Aedes albopictus

>  <Reference DOI>
10.1021/acs.jafc.2c05537

>  <Activity Label>
1

>  <Repellency>
Active

>  <IUPAC>
nonan-5-one

>  <Common name>
nonan-5-one

$$$$
Compound 52
     RDKit          2D

 10  9  0  0  0  0  0  0  0  0999 V2000
    0.0000    0.0000    0.0000 O   0  0  0  0  0  0  0  0  0  0  0  0
   -0.0363    1.5387    0.0000 C   0  0  0  0  0  0  0  0  0  0  0  0
    1.2237    2.3141    0.0000 C   0  0  0  0  0  0  0  0  0  0  0  0
   -1.3691    2.3141    0.0000 C   0  0  0  0  0  0  0  0  0  0  0  0
    2.4838    1.5750    0.0000 C   0  0  0  0  0  0  0  0  0  0  0  0
   -2.7018    1.5750    0.0000 C   0  0  0  0  0  0  0  0  0  0  0  0
    3.7438    2.3505    0.0000 C   0  0  0  0  0  0  0  0  0  0  0  0
    2.4474    0.1090    0.0000 C   0  0  0  0  0  0  0  0  0  0  0  0
   -4.0346    2.3505    0.0000 C   0  0  0  0  0  0  0  0  0  0  0  0
   -2.7382    0.1090    0.0000 C   0  0  0  0  0  0  0  0  0  0  0  0
  1  2  2  0
  2  3  1  0
  2  4  1  0
  3  5  1  0
  4  6  1  0
  5  7  1  0
  5  8  1  0
  6  9  1  0
  6 10  1  0
M  END
>  <Structure No>
52

>  <Molecule Name>
Isobutyl ketone

>  <PubChem CID>
7958

>  <SMILES>
CC(C)CC(CC(C)C)=O

>  <InChIKey>
PTTPXKJBFFKCEK-UHFFFAOYSA-N

>  <Molecular Formula>
C9H18O

>  <Target Organism>
Aedes aegypti

>  <Reference DOI>
10.1371/annotation/1dc83f26-8045-4b63-8a86-24c7b71a7f79

>  <Activity Label>
1

>  <Repellency>
Active

>  <IUPAC>
2,6-dimethylheptan-4-one

>  <Common name>
Isobutyl ketone

$$$$
Compound 53
     RDKit          2D

 10  9  0  0  0  0  0  0  0  0999 V2000
    0.0000    0.0000    0.0000 O   0  0  0  0  0  0  0  0  0  0  0  0
   -0.0761    1.6110    0.0000 C   0  0  0  0  0  0  0  0  0  0  0  0
    1.1670    2.4228    0.0000 C   0  0  0  0  0  0  0  0  0  0  0  0
   -1.4714    2.4228    0.0000 C   0  0  0  0  0  0  0  0  0  0  0  0
    2.4102    1.6871    0.0000 C   0  0  0  0  0  0  0  0  0  0  0  0
    3.6533    2.4990    0.0000 C   0  0  0  0  0  0  0  0  0  0  0  0
    4.8965    1.7632    0.0000 C   0  0  0  0  0  0  0  0  0  0  0  0
    6.1396    2.5751    0.0000 C   0  0  0  0  0  0  0  0  0  0  0  0
    7.3828    1.8393    0.0000 C   0  0  0  0  0  0  0  0  0  0  0  0
    8.6259    2.6512    0.0000 C   0  0  0  0  0  0  0  0  0  0  0  0
  1  2  2  0
  2  3  1  0
  2  4  1  0
  3  5  1  0
  5  6  1  0
  6  7  1  0
  7  8  1  0
  8  9  1  0
  9 10  1  0
M  END
>  <Structure No>
53

>  <Molecule Name>
nonan-2-one

>  <PubChem CID>
13187

>  <SMILES>
CCCCCCCC(C)=O

>  <InChIKey>
VKCYHJWLYTUGCC-UHFFFAOYSA-N

>  <Molecular Formula>
C9H18O

>  <Target Organism>
Aedes albopictus

>  <Reference DOI>
10.1021/acs.jafc.2c05537

>  <Activity Label>
1

>  <Repellency>
Active

>  <IUPAC>
nonan-2-one

>  <Common name>
nonan-2-one

$$$$
Compound 54
     RDKit          2D

 10 11  0  0  0  0  0  0  0  0999 V2000
    0.0000    0.0000    0.0000 C   0  0  0  0  0  0  0  0  0  0  0  0
   -1.0880    0.7745    0.0000 C   0  0  0  0  0  0  0  0  0  0  0  0
    1.2355    1.1249    0.0000 C   0  0  0  0  0  0  0  0  0  0  0  0
   -0.0922   -1.0142    0.0000 C   0  0  0  0  0  0  0  0  0  0  0  0
   -0.9036    1.9547    0.0000 C   0  0  0  0  0  0  0  0  0  0  0  0
    2.6740    1.2724    0.0000 C   0  0  0  0  0  0  0  0  0  0  0  0
    0.5532    3.4669    0.0000 C   0  0  0  0  0  0  0  0  0  0  0  0
    1.2724    2.4342    0.0000 C   0  0  0  0  0  0  0  0  0  0  0  0
    3.1165    0.4057    0.0000 C   0  0  0  0  0  0  0  0  0  0  0  0
    3.5407    1.9732    0.0000 C   0  0  0  0  0  0  0  0  0  0  0  0
  1  2  2  0
  1  3  1  0
  1  4  1  0
  2  5  1  0
  3  6  1  0
  3  7  1  0
  5  8  1  0
  6  9  1  0
  6 10  1  0
  6  8  1  0
  7  8  1  0
M  END
>  <Structure No>
54

>  <Molecule Name>
(+-)-alpha-Pinene

>  <PubChem CID>
6654

>  <SMILES>
CC1(C)C2C(C)=CCC1C2

>  <InChIKey>
GRWFGVWFFZKLTI-UHFFFAOYSA-N

>  <Molecular Formula>
C10H16

>  <Target Organism>
Musca domestica

>  <Reference DOI>
10.1016/j.phytochem.2015.07.004

>  <Activity Label>
1

>  <Repellency>
Active

>  <IUPAC>
2,6,6-trimethylbicyclo[3.1.1]hept-2-ene

>  <Common name>
(+-)-alpha-Pinene

$$$$
Compound 55
     RDKit          2D

 10 11  0  0  0  0  0  0  0  0999 V2000
    0.0000    0.0000    0.0000 C   0  0  0  0  0  0  0  0  0  0  0  0
   -0.0911   -1.0387    0.0000 C   0  0  0  0  0  0  0  0  0  0  0  0
    1.2027    1.1480    0.0000 C   0  0  0  0  0  0  0  0  0  0  0  0
   -1.1116    0.7836    0.0000 C   0  0  0  0  0  0  0  0  0  0  0  0
    2.6059    1.2938    0.0000 C   0  0  0  0  0  0  0  0  0  0  0  0
    0.5102    3.4624    0.0000 C   0  0  0  0  0  0  0  0  0  0  0  0
   -0.9111    1.9499    0.0000 C   0  0  0  0  0  0  0  0  0  0  0  0
    1.2574    2.4601    0.0000 C   0  0  0  0  0  0  0  0  0  0  0  0
    3.0797    0.4009    0.0000 C   0  0  0  0  0  0  0  0  0  0  0  0
    3.4989    2.0228    0.0000 C   0  0  0  0  0  0  0  0  0  0  0  0
  1  2  2  0
  1  3  1  0
  1  4  1  0
  3  5  1  0
  3  6  1  0
  4  7  1  0
  5  8  1  0
  5  9  1  0
  5 10  1  0
  6  8  1  0
  7  8  1  0
M  END
>  <Structure No>
55

>  <Molecule Name>
β-pinene

>  <PubChem CID>
14896

>  <SMILES>
CC(C)(C(C1)CC2)C1C2=C

>  <InChIKey>
WTARULDDTDQWMU-UHFFFAOYSA-N

>  <Molecular Formula>
C10H16

>  <Target Organism>
Aedes albopictus

>  <Reference DOI>
10.3390/molecules22061004

>  <Activity Label>
1

>  <Repellency>
Active

>  <IUPAC>
6,6-dimethyl-2-methylidenebicyclo[3.1.1]heptane

>  <Common name>
β-pinene

$$$$
Compound 56
     RDKit          2D

 10 11  0  0  0  0  0  0  0  0999 V2000
    0.0000    0.0000    0.0000 C   0  0  0  0  0  0  0  0  0  0  0  0
   -1.5726    0.0361    0.0000 C   0  0  0  0  0  0  0  0  0  0  0  0
   -1.2834    1.1388    0.0000 C   0  0  0  0  0  0  0  0  0  0  0  0
    0.5061   -0.9219    0.0000 C   0  0  0  0  0  0  0  0  0  0  0  0
    0.9219    0.6146    0.0000 C   0  0  0  0  0  0  0  0  0  0  0  0
   -2.9464   -0.8857    0.0000 C   0  0  0  0  0  0  0  0  0  0  0  0
   -2.1691    2.2414    0.0000 C   0  0  0  0  0  0  0  0  0  0  0  0
   -3.5791    0.8495    0.0000 C   0  0  0  0  0  0  0  0  0  0  0  0
   -3.9406   -0.1988    0.0000 C   0  0  0  0  0  0  0  0  0  0  0  0
   -2.9645   -1.9522    0.0000 C   0  0  0  0  0  0  0  0  0  0  0  0
  1  2  1  0
  1  3  1  0
  1  4  1  0
  1  5  1  0
  2  6  1  0
  2  7  1  0
  3  8  1  0
  6  9  1  0
  6 10  1  0
  3  7  1  0
  8  9  1  0
M  END
>  <Structure No>
56

>  <Molecule Name>
Pinane

>  <PubChem CID>
10129

>  <SMILES>
CC1C(C2)C(C)(C)C2CC1

>  <InChIKey>
XOKSLPVRUOBDEW-UHFFFAOYSA-N

>  <Molecular Formula>
C10H18

>  <Target Organism>
Anopheles spp.

>  <Reference DOI>
10.1186/s13071-017-2122-8

>  <Activity Label>
1

>  <Repellency>
Active

>  <IUPAC>
2,6,6-trimethylbicyclo[3.1.1]heptane

>  <Common name>
Pinane

$$$$
Compound 57
     RDKit          2D

 11 12  0  0  0  0  0  0  0  0999 V2000
    0.0000    0.0000    0.0000 O   0  0  0  0  0  0  0  0  0  0  0  0
   -1.2834    0.7350    0.0000 C   0  0  0  0  0  0  0  0  0  0  0  0
   -2.5668    0.0233    0.0000 O   0  0  0  0  0  0  0  0  0  0  0  0
   -1.3184    2.2168    0.0000 C   0  0  0  0  0  0  0  0  0  0  0  0
   -3.8503    0.7583    0.0000 C   0  0  0  0  0  0  0  0  0  0  0  0
   -2.6018    2.9635    0.0000 C   0  0  0  0  0  0  0  0  0  0  0  0
   -3.8853    2.2401    0.0000 C   0  0  0  0  0  0  0  0  0  0  0  0
   -5.1804    0.0350    0.0000 C   0  0  0  0  0  0  0  0  0  0  0  0
   -5.2154    3.0335    0.0000 C   0  0  0  0  0  0  0  0  0  0  0  0
   -6.5221    0.7933    0.0000 C   0  0  0  0  0  0  0  0  0  0  0  0
   -6.5572    2.3218    0.0000 C   0  0  0  0  0  0  0  0  0  0  0  0
  1  2  2  0
  2  3  1  0
  2  4  1  0
  3  5  1  0
  4  6  2  0
  5  7  2  0
  5  8  1  0
  7  9  1  0
  8 10  2  0
  9 11  2  0
  6  7  1  0
 10 11  1  0
M  END
>  <Structure No>
57

>  <Molecule Name>
Coumarin; coumarin

>  <PubChem CID>
323

>  <SMILES>
O=C1Oc(cccc2)c2C=C1; C1=CC=C2C(=C1)C=CC(=O)O2

>  <InChIKey>
ZYGHJZDHTFUPRJ-UHFFFAOYSA-N

>  <Molecular Formula>
C9H6O2

>  <Target Organism>
Aedes aegypti

>  <Reference DOI>
10.1371/annotation/1dc83f26-8045-4b63-8a86-24c7b71a7f79; 10.1021/acs.jafc.6b01668

>  <Activity Label>
1

>  <Repellency>
Active

>  <IUPAC>
chromen-2-one

>  <Common name>
Coumarin; coumarin

$$$$
Compound 58
     RDKit          2D

 11 12  0  0  0  0  0  0  0  0999 V2000
    0.0000    0.0000    0.0000 O   0  0  0  0  0  0  0  0  0  0  0  0
   -0.4831   -1.3920    0.0000 C   0  0  0  0  0  0  0  0  0  0  0  0
   -1.9327   -1.8062    0.0000 C   0  0  0  0  0  0  0  0  0  0  0  0
    0.3681   -2.5655    0.0000 C   0  0  0  0  0  0  0  0  0  0  0  0
   -1.9672   -3.2672    0.0000 C   0  0  0  0  0  0  0  0  0  0  0  0
   -3.2672   -1.0123    0.0000 C   0  0  0  0  0  0  0  0  0  0  0  0
   -0.5522   -3.7389    0.0000 O   0  0  0  0  0  0  0  0  0  0  0  0
   -3.3017   -3.9575    0.0000 C   0  0  0  0  0  0  0  0  0  0  0  0
   -4.6018   -1.7026    0.0000 C   0  0  0  0  0  0  0  0  0  0  0  0
   -4.6363   -3.1637    0.0000 C   0  0  0  0  0  0  0  0  0  0  0  0
   -5.9363   -0.9088    0.0000 C   0  0  0  0  0  0  0  0  0  0  0  0
  1  2  2  0
  2  3  1  0
  2  4  1  0
  3  5  2  0
  3  6  1  0
  4  7  1  0
  5  8  1  0
  6  9  2  0
  8 10  2  0
  9 11  1  0
  5  7  1  0
  9 10  1  0
M  END
>  <Structure No>
58

>  <Molecule Name>
5-Methylbenzofuran-3(2H)-one

>  <PubChem CID>
590535

>  <SMILES>
Cc(cc1)cc2c1OCC2=O

>  <InChIKey>
YHBPCTBGLNRJDY-UHFFFAOYSA-N

>  <Molecular Formula>
C9H8O2

>  <Target Organism>
Aedes aegypti

>  <Reference DOI>
10.1371/annotation/1dc83f26-8045-4b63-8a86-24c7b71a7f79

>  <Activity Label>
1

>  <Repellency>
Active

>  <IUPAC>
5-methyl-1-benzofuran-3-one

>  <Common name>
5-Methylbenzofuran-3(2H)-one

$$$$
Compound 59
     RDKit          2D

  0  0  0  0  0  0  0  0  0  0999 V3000
M  V30 BEGIN CTAB
M  V30 COUNTS 11 12 0 0 0
M  V30 BEGIN ATOM
M  V30 1 O 0.000000 0.000000 0.000000 0
M  V30 2 C 1.265400 0.766500 0.000000 0
M  V30 3 C 1.228900 2.311800 0.000000 0
M  V30 4 C 2.530800 0.024300 0.000000 0
M  V30 5 C 2.494300 3.090500 0.000000 0
M  V30 6 C 3.796200 0.790800 0.000000 0
M  V30 7 C 3.759700 2.360400 0.000000 0
M  V30 8 C 2.457800 4.635700 0.000000 0
M  V30 9 C 5.025100 3.139200 0.000000 0
M  V30 10 C 3.723200 5.402300 0.000000 0
M  V30 11 C 4.988600 4.684400 0.000000 0
M  V30 END ATOM
M  V30 BEGIN BOND
M  V30 1 1 2 1 CFG=3
M  V30 2 1 2 3
M  V30 3 1 2 4
M  V30 4 1 3 5
M  V30 5 1 4 6
M  V30 6 2 5 7
M  V30 7 1 5 8
M  V30 8 1 7 9
M  V30 9 2 8 10
M  V30 10 2 9 11
M  V30 11 1 6 7
M  V30 12 1 10 11
M  V30 END BOND
M  V30 BEGIN COLLECTION
M  V30 MDLV30/STERAC1 ATOMS=(1 2)
M  V30 END COLLECTION
M  V30 END CTAB
M  END
>  <Structure No>
59

>  <Molecule Name>
1,2,3,4-Tetrahydro-2-naphthalenol

>  <PubChem CID>
10747

>  <SMILES>
OC(CC1)Cc2c1cccc2

>  <InChIKey>
JWQYZECMEPOAPF-JTQLQIEISA-N

>  <Molecular Formula>
C10H12O

>  <Target Organism>
Aedes aegypti

>  <Reference DOI>
10.3390/toxics11100837

>  <Activity Label>
1

>  <Repellency>
Active

>  <IUPAC>
1,2,3,4-tetrahydronaphthalen-2-ol

>  <Common name>
1,2,3,4-Tetrahydro-2-naphthalenol

$$$$
Compound 60
     RDKit          2D

  0  0  0  0  0  0  0  0  0  0999 V3000
M  V30 BEGIN CTAB
M  V30 COUNTS 11 12 0 0 0
M  V30 BEGIN ATOM
M  V30 1 O 0.000000 0.000000 0.000000 0
M  V30 2 C -0.035600 1.508000 0.000000 0
M  V30 3 C 1.199300 2.268000 0.000000 0
M  V30 4 C -1.341800 2.268000 0.000000 0
M  V30 5 C 1.163600 3.776000 0.000000 0
M  V30 6 C 2.481700 1.519900 0.000000 0
M  V30 7 C -1.377400 3.776000 0.000000 0
M  V30 8 C 2.446100 4.583500 0.000000 0
M  V30 9 C -0.142400 4.536000 0.000000 0
M  V30 10 C 3.776000 2.291700 0.000000 0
M  V30 11 C 3.740400 3.847300 0.000000 0
M  V30 END ATOM
M  V30 BEGIN BOND
M  V30 1 1 2 1 CFG=1
M  V30 2 1 2 3
M  V30 3 1 2 4
M  V30 4 2 3 5
M  V30 5 1 3 6
M  V30 6 1 4 7
M  V30 7 1 5 8
M  V30 8 1 5 9
M  V30 9 2 6 10
M  V30 10 2 8 11
M  V30 11 1 7 9
M  V30 12 1 10 11
M  V30 END BOND
M  V30 BEGIN COLLECTION
M  V30 MDLV30/STERAC1 ATOMS=(1 2)
M  V30 END COLLECTION
M  V30 END CTAB
M  END
>  <Structure No>
60

>  <Molecule Name>
1,2,3,4-Tetrahydro-1-naphthalenol

>  <PubChem CID>
10723

>  <SMILES>
OC(CCC1)c2c1cccc2

>  <InChIKey>
JAAJQSRLGAYGKZ-UHFFFAOYSA-N

>  <Molecular Formula>
C10H12O

>  <Target Organism>
Anopheles spp.

>  <Reference DOI>
10.1186/s13071-017-2122-8

>  <Activity Label>
1

>  <Repellency>
Active

>  <IUPAC>
1,2,3,4-tetrahydronaphthalen-1-ol

>  <Common name>
1,2,3,4-Tetrahydro-1-naphthalenol

$$$$
Compound 61
     RDKit          2D

 11 12  0  0  0  0  0  0  0  0999 V2000
    0.0000    0.0000    0.0000 O   0  0  0  0  0  0  0  0  0  0  0  0
    0.3803    1.1409    0.0000 C   0  0  0  0  0  0  0  0  0  0  0  0
    1.7928    1.9377    0.0000 C   0  0  0  0  0  0  0  0  0  0  0  0
   -0.1267    2.2999    0.0000 C   0  0  0  0  0  0  0  0  0  0  0  0
    1.1228    4.2377    0.0000 C   0  0  0  0  0  0  0  0  0  0  0  0
    3.2417    1.4488    0.0000 C   0  0  0  0  0  0  0  0  0  0  0  0
    1.3763    0.9236    0.0000 C   0  0  0  0  0  0  0  0  0  0  0  0
    1.9921    3.1330    0.0000 C   0  0  0  0  0  0  0  0  0  0  0  0
   -1.3039    2.1913    0.0000 C   0  0  0  0  0  0  0  0  0  0  0  0
   -0.7968    3.4228    0.0000 C   0  0  0  0  0  0  0  0  0  0  0  0
    3.4409    2.6078    0.0000 C   0  0  0  0  0  0  0  0  0  0  0  0
  1  2  2  0
  2  3  1  0
  2  4  1  0
  3  5  1  0
  3  6  1  0
  3  7  1  0
  4  8  1  0
  4  9  1  0
  4 10  1  0
  6 11  1  0
  5  8  1  0
  8 11  1  0
M  END
>  <Structure No>
61

>  <Molecule Name>
(+-)-Fenchone

>  <PubChem CID>
14525

>  <SMILES>
CC(C)(C1CC2(C)CC1)C2=O

>  <InChIKey>
LHXDLQBQYFFVNW-UHFFFAOYSA-N

>  <Molecular Formula>
C10H16O

>  <Target Organism>
Aedes aegypti

>  <Reference DOI>
10.1016/j.isci.2019.07.008

>  <Activity Label>
1

>  <Repellency>
Active

>  <IUPAC>
1,3,3-trimethylbicyclo[2.2.1]heptan-2-one

>  <Common name>
(+-)-Fenchone

$$$$
Compound 62
     RDKit          2D

 11 12  0  0  0  0  0  0  0  0999 V2000
    0.0000    0.0000    0.0000 O   0  0  0  0  0  0  0  0  0  0  0  0
    1.0235   -1.9116    0.0000 C   0  0  0  0  0  0  0  0  0  0  0  0
    0.7827    0.6622    0.0000 C   0  0  0  0  0  0  0  0  0  0  0  0
   -0.6923   -2.3932    0.0000 C   0  0  0  0  0  0  0  0  0  0  0  0
    2.4986   -2.3180    0.0000 C   0  0  0  0  0  0  0  0  0  0  0  0
    0.6171   -2.9351    0.0000 C   0  0  0  0  0  0  0  0  0  0  0  0
    1.0385   -0.7526    0.0000 C   0  0  0  0  0  0  0  0  0  0  0  0
    0.3763    1.9567    0.0000 C   0  0  0  0  0  0  0  0  0  0  0  0
    1.3847    1.5353    0.0000 C   0  0  0  0  0  0  0  0  0  0  0  0
   -1.1891   -1.1289    0.0000 C   0  0  0  0  0  0  0  0  0  0  0  0
    2.6341   -1.0235    0.0000 C   0  0  0  0  0  0  0  0  0  0  0  0
  1  2  1  0
  1  3  1  0
  2  4  1  0
  2  5  1  0
  2  6  1  0
  3  7  1  0
  3  8  1  0
  3  9  1  0
  4 10  1  0
  5 11  1  0
  7 10  1  0
  7 11  1  0
M  END
>  <Structure No>
62

>  <Molecule Name>
Eucalyptol

>  <PubChem CID>
2758

>  <SMILES>
CC1(C)OC2(C)CCC1CC2

>  <InChIKey>
WEEGYLXZBRQIMU-UHFFFAOYSA-N

>  <Molecular Formula>
C10H18O

>  <Target Organism>
Aedes aegypti

>  <Reference DOI>
10.1016/j.isci.2019.07.008

>  <Activity Label>
1

>  <Repellency>
Active

>  <IUPAC>
1,3,3-trimethyl-2-oxabicyclo[2.2.2]octane

>  <Common name>
Eucalyptol

$$$$
Compound 63
     RDKit          2D

 11 10  0  0  0  0  0  0  0  0999 V2000
    0.0000    0.0000    0.0000 O   0  0  0  0  0  0  0  0  0  0  0  0
   -0.0359    1.5228    0.0000 C   0  0  0  0  0  0  0  0  0  0  0  0
   -1.3550    2.2903    0.0000 C   0  0  0  0  0  0  0  0  0  0  0  0
    1.2111    2.2903    0.0000 C   0  0  0  0  0  0  0  0  0  0  0  0
   -2.6740    1.5588    0.0000 C   0  0  0  0  0  0  0  0  0  0  0  0
   -1.3909    3.8132    0.0000 C   0  0  0  0  0  0  0  0  0  0  0  0
    2.4581    1.5588    0.0000 C   0  0  0  0  0  0  0  0  0  0  0  0
    1.1751    3.8132    0.0000 C   0  0  0  0  0  0  0  0  0  0  0  0
   -2.7100    0.1079    0.0000 O   0  0  0  0  0  0  0  0  0  0  0  0
   -3.9930    2.3262    0.0000 C   0  0  0  0  0  0  0  0  0  0  0  0
   -5.3120    1.5948    0.0000 C   0  0  0  0  0  0  0  0  0  0  0  0
  1  2  1  0
  2  3  1  0
  2  4  1  0
  3  5  1  0
  3  6  1  0
  4  7  1  0
  4  8  1  0
  5  9  1  0
  5 10  1  0
 10 11  1  0
M  END
>  <Structure No>
63

>  <Molecule Name>
2,4-Dimethylheptane-3,5-diol

>  <PubChem CID>
14027629

>  <SMILES>
CCC(C(C)C(C(C)C)O)O

>  <InChIKey>
LXDLZEOLVBFSIH-UHFFFAOYSA-N

>  <Molecular Formula>
C9H20O2

>  <Target Organism>
Aedes aegypti

>  <Reference DOI>
10.3390/toxics11100837

>  <Activity Label>
1

>  <Repellency>
Active

>  <IUPAC>
2,4-dimethylheptane-3,5-diol

>  <Common name>
2,4-Dimethylheptane-3,5-diol

$$$$
Compound 64
     RDKit          2D

 11 10  0  0  0  0  0  0  0  0999 V2000
    0.0000    0.0000    0.0000 O   0  0  0  0  0  0  0  0  0  0  0  0
   -0.0349   -1.4813    0.0000 C   0  0  0  0  0  0  0  0  0  0  0  0
   -1.3879   -2.2044    0.0000 O   0  0  0  0  0  0  0  0  0  0  0  0
    1.2480   -2.2044    0.0000 C   0  0  0  0  0  0  0  0  0  0  0  0
    2.5310   -1.3996    0.0000 C   0  0  0  0  0  0  0  0  0  0  0  0
    3.8140   -2.1461    0.0000 C   0  0  0  0  0  0  0  0  0  0  0  0
    5.0971   -1.3413    0.0000 C   0  0  0  0  0  0  0  0  0  0  0  0
    6.3801   -2.0878    0.0000 C   0  0  0  0  0  0  0  0  0  0  0  0
    7.6631   -1.2830    0.0000 C   0  0  0  0  0  0  0  0  0  0  0  0
    8.9461   -2.0295    0.0000 C   0  0  0  0  0  0  0  0  0  0  0  0
   10.2291   -1.2247    0.0000 C   0  0  0  0  0  0  0  0  0  0  0  0
  1  2  2  0
  2  3  1  0
  2  4  1  0
  4  5  1  0
  5  6  1  0
  6  7  1  0
  7  8  1  0
  8  9  1  0
  9 10  1  0
 10 11  1  0
M  END
>  <Structure No>
64

>  <Molecule Name>
Nonanoic Acid

>  <PubChem CID>
8158

>  <SMILES>
CCCCCCCCC(O)=O

>  <InChIKey>
FBUKVWPVBMHYJY-UHFFFAOYSA-N

>  <Molecular Formula>
C9H18O2

>  <Target Organism>
Aedes aegypti

>  <Reference DOI>
10.3390/toxics11100837

>  <Activity Label>
1

>  <Repellency>
Active

>  <IUPAC>
nonanoic acid

>  <Common name>
Nonanoic Acid

$$$$
Compound 65
     RDKit          2D

 11 10  0  0  0  0  0  0  0  0999 V2000
    0.0000    0.0000    0.0000 O   0  0  0  0  0  0  0  0  0  0  0  0
   -1.3336    0.7638    0.0000 C   0  0  0  0  0  0  0  0  0  0  0  0
   -2.6673    0.0969    0.0000 C   0  0  0  0  0  0  0  0  0  0  0  0
   -2.7764   -1.2245    0.0000 C   0  0  0  0  0  0  0  0  0  0  0  0
   -4.0010    0.8729    0.0000 C   0  0  0  0  0  0  0  0  0  0  0  0
   -2.7764    1.6367    0.0000 C   0  0  0  0  0  0  0  0  0  0  0  0
   -4.1101   -1.8914    0.0000 O   0  0  0  0  0  0  0  0  0  0  0  0
   -5.3347    0.2061    0.0000 C   0  0  0  0  0  0  0  0  0  0  0  0
   -4.1101    2.4127    0.0000 C   0  0  0  0  0  0  0  0  0  0  0  0
   -6.6683    0.9820    0.0000 C   0  0  0  0  0  0  0  0  0  0  0  0
   -8.0020    0.3152    0.0000 C   0  0  0  0  0  0  0  0  0  0  0  0
  1  2  1  0
  2  3  1  0
  3  4  1  0
  3  5  1  0
  3  6  1  0
  4  7  1  0
  5  8  1  0
  6  9  1  0
  8 10  1  0
 10 11  1  0
M  END
>  <Structure No>
65

>  <Molecule Name>
2-Butyl-2-ethyl-1,3-propanediol

>  <PubChem CID>
61038

>  <SMILES>
CCCCC(CC)(CO)CO

>  <InChIKey>
DSKYSDCYIODJPC-UHFFFAOYSA-N

>  <Molecular Formula>
C9H20O2

>  <Target Organism>
Anopheles spp.

>  <Reference DOI>
10.1186/s13071-017-2122-8

>  <Activity Label>
1

>  <Repellency>
Active

>  <IUPAC>
2-butyl-2-ethylpropane-1,3-diol

>  <Common name>
2-Butyl-2-ethyl-1,3-propanediol

$$$$
Compound 66
     RDKit          2D

 11 10  0  0  0  0  0  0  0  0999 V2000
    0.0000    0.0000    0.0000 O   0  0  0  0  0  0  0  0  0  0  0  0
   -0.0362    1.5362    0.0000 C   0  0  0  0  0  0  0  0  0  0  0  0
   -1.3669    2.3104    0.0000 C   0  0  0  0  0  0  0  0  0  0  0  0
    1.2217    2.3104    0.0000 C   0  0  0  0  0  0  0  0  0  0  0  0
   -2.6975    1.5725    0.0000 C   0  0  0  0  0  0  0  0  0  0  0  0
    2.4798    1.5725    0.0000 C   0  0  0  0  0  0  0  0  0  0  0  0
   -2.7338    0.1088    0.0000 O   0  0  0  0  0  0  0  0  0  0  0  0
   -4.0282    2.3467    0.0000 C   0  0  0  0  0  0  0  0  0  0  0  0
    3.7379    2.3467    0.0000 C   0  0  0  0  0  0  0  0  0  0  0  0
    2.4435    0.1088    0.0000 C   0  0  0  0  0  0  0  0  0  0  0  0
   -5.3588    1.6088    0.0000 C   0  0  0  0  0  0  0  0  0  0  0  0
  1  2  1  0
  2  3  1  0
  2  4  1  0
  3  5  1  0
  4  6  1  0
  5  7  1  0
  5  8  1  0
  6  9  1  0
  6 10  1  0
  8 11  1  0
M  END
>  <Structure No>
66

>  <Molecule Name>
7-Methyloctane-3,5-diol

>  <PubChem CID>
20072255

>  <SMILES>
CCC(CC(CC(C)C)O)O

>  <InChIKey>
KDLXKZWOSNPNPT-UHFFFAOYSA-N

>  <Molecular Formula>
C9H20O2

>  <Target Organism>
Aedes aegypti

>  <Reference DOI>
10.3390/toxics11100837

>  <Activity Label>
1

>  <Repellency>
Active

>  <IUPAC>
7-methyloctane-3,5-diol

>  <Common name>
7-Methyloctane-3,5-diol

$$$$
Compound 67
     RDKit          2D

 11 10  0  0  0  0  0  0  0  0999 V2000
    0.0000    0.0000    0.0000 O   0  0  0  0  0  0  0  0  0  0  0  0
   -0.0361   -1.4599    0.0000 C   0  0  0  0  0  0  0  0  0  0  0  0
    1.2186   -2.1959    0.0000 C   0  0  0  0  0  0  0  0  0  0  0  0
   -1.3634   -2.1959    0.0000 C   0  0  0  0  0  0  0  0  0  0  0  0
    2.4734   -1.4237    0.0000 C   0  0  0  0  0  0  0  0  0  0  0  0
   -2.6906   -1.4237    0.0000 C   0  0  0  0  0  0  0  0  0  0  0  0
    2.4372    0.1085    0.0000 O   0  0  0  0  0  0  0  0  0  0  0  0
    3.7282   -2.1597    0.0000 C   0  0  0  0  0  0  0  0  0  0  0  0
   -4.0178   -2.1597    0.0000 C   0  0  0  0  0  0  0  0  0  0  0  0
   -5.3450   -1.3875    0.0000 C   0  0  0  0  0  0  0  0  0  0  0  0
   -6.6723   -2.1235    0.0000 C   0  0  0  0  0  0  0  0  0  0  0  0
  1  2  1  0
  2  3  1  0
  2  4  1  0
  3  5  1  0
  4  6  1  0
  5  7  1  0
  5  8  1  0
  6  9  1  0
  9 10  1  0
 10 11  1  0
M  END
>  <Structure No>
67

>  <Molecule Name>
2,4-Nonanediol

>  <PubChem CID>
347838

>  <SMILES>
CCCCCC(CC(C)O)O

>  <InChIKey>
DYGJEBOTMBEVAJ-UHFFFAOYSA-N

>  <Molecular Formula>
C9H20O2

>  <Target Organism>
Aedes aegypti

>  <Reference DOI>
10.3390/toxics11100837

>  <Activity Label>
1

>  <Repellency>
Active

>  <IUPAC>
nonane-2,4-diol

>  <Common name>
2,4-Nonanediol

$$$$
Compound 68
     RDKit          2D

 11 10  0  0  0  0  0  0  0  0999 V2000
    0.0000    0.0000    0.0000 O   0  0  0  0  0  0  0  0  0  0  0  0
   -0.0364   -1.4697    0.0000 C   0  0  0  0  0  0  0  0  0  0  0  0
   -1.3726   -2.2107    0.0000 C   0  0  0  0  0  0  0  0  0  0  0  0
    1.2268   -2.2107    0.0000 C   0  0  0  0  0  0  0  0  0  0  0  0
   -2.7087   -1.4212    0.0000 C   0  0  0  0  0  0  0  0  0  0  0  0
    2.4901   -1.4212    0.0000 C   0  0  0  0  0  0  0  0  0  0  0  0
   -4.0449   -2.1621    0.0000 O   0  0  0  0  0  0  0  0  0  0  0  0
   -2.7452    0.1214    0.0000 C   0  0  0  0  0  0  0  0  0  0  0  0
    3.7534   -2.1621    0.0000 C   0  0  0  0  0  0  0  0  0  0  0  0
    5.0167   -1.3726    0.0000 C   0  0  0  0  0  0  0  0  0  0  0  0
    3.7170   -3.6319    0.0000 C   0  0  0  0  0  0  0  0  0  0  0  0
  1  2  1  0
  2  3  1  0
  2  4  1  0
  3  5  1  0
  4  6  1  0
  5  7  1  0
  5  8  1  0
  6  9  1  0
  9 10  1  0
  9 11  1  0
M  END
>  <Structure No>
68

>  <Molecule Name>
7-Methyloctane-2,4-diol

>  <PubChem CID>
349984

>  <SMILES>
CC(C)CCC(CC(C)O)O

>  <InChIKey>
FVVQZZUMQHECQG-UHFFFAOYSA-N

>  <Molecular Formula>
C9H20O2

>  <Target Organism>
Aedes aegypti

>  <Reference DOI>
10.3390/toxics11100837

>  <Activity Label>
1

>  <Repellency>
Active

>  <IUPAC>
7-methyloctane-2,4-diol

>  <Common name>
7-Methyloctane-2,4-diol

$$$$
Compound 69
     RDKit          2D

 11 10  0  0  0  0  0  0  0  0999 V2000
    0.0000    0.0000    0.0000 O   0  0  0  0  0  0  0  0  0  0  0  0
   -0.0365   -1.4728    0.0000 C   0  0  0  0  0  0  0  0  0  0  0  0
    1.2294   -2.2153    0.0000 C   0  0  0  0  0  0  0  0  0  0  0  0
   -1.3754   -2.2153    0.0000 C   0  0  0  0  0  0  0  0  0  0  0  0
    2.4953   -1.4241    0.0000 C   0  0  0  0  0  0  0  0  0  0  0  0
    1.1929   -3.6882    0.0000 C   0  0  0  0  0  0  0  0  0  0  0  0
   -2.7144   -1.4241    0.0000 C   0  0  0  0  0  0  0  0  0  0  0  0
    3.7612   -2.1666    0.0000 C   0  0  0  0  0  0  0  0  0  0  0  0
    2.4588   -4.4186    0.0000 C   0  0  0  0  0  0  0  0  0  0  0  0
   -4.0534   -2.1666    0.0000 O   0  0  0  0  0  0  0  0  0  0  0  0
   -2.7509    0.1217    0.0000 C   0  0  0  0  0  0  0  0  0  0  0  0
  1  2  1  0
  2  3  1  0
  2  4  1  0
  3  5  1  0
  3  6  1  0
  4  7  1  0
  5  8  1  0
  6  9  1  0
  7 10  1  0
  7 11  1  0
M  END
>  <Structure No>
69

>  <Molecule Name>
5-Ethylheptane-2,4-diol

>  <PubChem CID>
87867419

>  <SMILES>
CCC(CC)C(CC(C)O)O

>  <InChIKey>
CSUNGSFXBUDYAR-UHFFFAOYSA-N

>  <Molecular Formula>
C9H20O2

>  <Target Organism>
Aedes aegypti

>  <Reference DOI>
10.3390/toxics11100837

>  <Activity Label>
1

>  <Repellency>
Active

>  <IUPAC>
5-ethylheptane-2,4-diol

>  <Common name>
5-Ethylheptane-2,4-diol

$$$$
Compound 70
     RDKit          2D

 11 10  0  0  0  0  0  0  0  0999 V2000
    0.0000    0.0000    0.0000 O   0  0  0  0  0  0  0  0  0  0  0  0
   -0.0361    1.5288    0.0000 C   0  0  0  0  0  0  0  0  0  0  0  0
    1.2158    2.2993    0.0000 C   0  0  0  0  0  0  0  0  0  0  0  0
   -1.3603    2.2993    0.0000 C   0  0  0  0  0  0  0  0  0  0  0  0
    2.4679    1.5650    0.0000 C   0  0  0  0  0  0  0  0  0  0  0  0
    1.9502    3.6236    0.0000 C   0  0  0  0  0  0  0  0  0  0  0  0
    0.4454    3.6236    0.0000 C   0  0  0  0  0  0  0  0  0  0  0  0
   -1.3964    3.8282    0.0000 C   0  0  0  0  0  0  0  0  0  0  0  0
   -2.6845    1.5650    0.0000 C   0  0  0  0  0  0  0  0  0  0  0  0
    2.4317    0.1083    0.0000 O   0  0  0  0  0  0  0  0  0  0  0  0
    3.7199    2.3354    0.0000 C   0  0  0  0  0  0  0  0  0  0  0  0
  1  2  1  0
  2  3  1  0
  2  4  1  0
  3  5  1  0
  3  6  1  0
  3  7  1  0
  4  8  1  0
  4  9  1  0
  5 10  1  0
  5 11  1  0
M  END
>  <Structure No>
70

>  <Molecule Name>
3,3,5-Trimethylhexane-2,4-diol

>  <PubChem CID>
57276440

>  <SMILES>
CC(C)C(C(C)(C)C(C)O)O

>  <InChIKey>
FGIKETQPRLOEDV-UHFFFAOYSA-N

>  <Molecular Formula>
C9H20O2

>  <Target Organism>
Aedes aegypti

>  <Reference DOI>
10.3390/toxics11100837

>  <Activity Label>
1

>  <Repellency>
Active

>  <IUPAC>
3,3,5-trimethylhexane-2,4-diol

>  <Common name>
3,3,5-Trimethylhexane-2,4-diol

$$$$
Compound 71
     RDKit          2D

 11 10  0  0  0  0  0  0  0  0999 V2000
    0.0000    0.0000    0.0000 O   0  0  0  0  0  0  0  0  0  0  0  0
    1.2869   -0.7397    0.0000 C   0  0  0  0  0  0  0  0  0  0  0  0
    2.5738    0.0608    0.0000 C   0  0  0  0  0  0  0  0  0  0  0  0
    3.8608   -0.6789    0.0000 C   0  0  0  0  0  0  0  0  0  0  0  0
    5.1477    0.1216    0.0000 C   0  0  0  0  0  0  0  0  0  0  0  0
    6.4346   -0.6181    0.0000 C   0  0  0  0  0  0  0  0  0  0  0  0
    7.7216    0.1824    0.0000 C   0  0  0  0  0  0  0  0  0  0  0  0
    9.0085   -0.5573    0.0000 C   0  0  0  0  0  0  0  0  0  0  0  0
   10.2955    0.2432    0.0000 C   0  0  0  0  0  0  0  0  0  0  0  0
   11.5824   -0.4965    0.0000 C   0  0  0  0  0  0  0  0  0  0  0  0
   12.8693    0.3040    0.0000 C   0  0  0  0  0  0  0  0  0  0  0  0
  1  2  2  0
  2  3  1  0
  3  4  1  0
  4  5  1  0
  5  6  1  0
  6  7  1  0
  7  8  1  0
  8  9  1  0
  9 10  1  0
 10 11  1  0
M  END
>  <Structure No>
71

>  <Molecule Name>
Decanal

>  <PubChem CID>
8175

>  <SMILES>
CCCCCCCCCC=O

>  <InChIKey>
KSMVZQYAVGTKIV-UHFFFAOYSA-N

>  <Molecular Formula>
C10H20O

>  <Target Organism>
Aedes aegypti

>  <Reference DOI>
10.1371/annotation/1dc83f26-8045-4b63-8a86-24c7b71a7f79

>  <Activity Label>
1

>  <Repellency>
Active

>  <IUPAC>
decanal

>  <Common name>
Decanal

$$$$
Compound 72
     RDKit          2D

 11 10  0  0  0  0  0  0  0  0999 V2000
    0.0000    0.0000    0.0000 O   0  0  0  0  0  0  0  0  0  0  0  0
    1.2737   -0.6368    0.0000 C   0  0  0  0  0  0  0  0  0  0  0  0
    2.5475    0.3126    0.0000 C   0  0  0  0  0  0  0  0  0  0  0  0
    3.8212   -0.3242    0.0000 C   0  0  0  0  0  0  0  0  0  0  0  0
    5.0950    0.6253    0.0000 C   0  0  0  0  0  0  0  0  0  0  0  0
    3.7170   -1.7948    0.0000 C   0  0  0  0  0  0  0  0  0  0  0  0
    6.3688   -0.0115    0.0000 C   0  0  0  0  0  0  0  0  0  0  0  0
    7.6425    0.9379    0.0000 C   0  0  0  0  0  0  0  0  0  0  0  0
    8.9163    0.3010    0.0000 C   0  0  0  0  0  0  0  0  0  0  0  0
   10.1901    1.2506    0.0000 C   0  0  0  0  0  0  0  0  0  0  0  0
    8.8121   -1.1695    0.0000 C   0  0  0  0  0  0  0  0  0  0  0  0
  1  2  2  0
  2  3  1  0
  3  4  2  0
  4  5  1  0
  4  6  1  0
  5  7  1  0
  7  8  1  0
  8  9  2  0
  9 10  1  0
  9 11  1  0
M  END
>  <Structure No>
72

>  <Molecule Name>
Citral

>  <PubChem CID>
638011

>  <SMILES>
CC(C)=CCC/C(\C)=C/C=O

>  <InChIKey>
WTEVQBCEXWBHNA-JXMROGBWSA-N

>  <Molecular Formula>
C10H16O

>  <Target Organism>
Anopheles spp.

>  <Reference DOI>
10.1186/s13071-017-2122-8

>  <Activity Label>
1

>  <Repellency>
Active

>  <IUPAC>


>  <Common name>
Citral

$$$$
Compound 73
     RDKit          2D

  0  0  0  0  0  0  0  0  0  0999 V3000
M  V30 BEGIN CTAB
M  V30 COUNTS 11 10 0 0 0
M  V30 BEGIN ATOM
M  V30 1 O 0.000000 0.000000 0.000000 0
M  V30 2 C 1.283100 -0.664900 0.000000 0
M  V30 3 C 2.566300 0.221600 0.000000 0
M  V30 4 C 3.849400 -0.443200 0.000000 0
M  V30 5 C 5.132600 0.443200 0.000000 0
M  V30 6 C 3.767700 -1.924700 0.000000 0
M  V30 7 C 6.415700 -0.221600 0.000000 0
M  V30 8 C 7.698900 0.676500 0.000000 0
M  V30 9 C 8.982000 0.011600 0.000000 0
M  V30 10 C 10.265200 0.909800 0.000000 0
M  V30 11 C 8.900400 -1.469700 0.000000 0
M  V30 END ATOM
M  V30 BEGIN BOND
M  V30 1 2 1 2
M  V30 2 1 2 3
M  V30 3 1 3 4
M  V30 4 1 4 5
M  V30 5 1 4 6 CFG=3
M  V30 6 1 5 7
M  V30 7 1 7 8
M  V30 8 2 8 9
M  V30 9 1 9 10
M  V30 10 1 9 11
M  V30 END BOND
M  V30 BEGIN COLLECTION
M  V30 MDLV30/STERAC1 ATOMS=(1 4)
M  V30 END COLLECTION
M  V30 END CTAB
M  END
>  <Structure No>
73

>  <Molecule Name>
Citronellal

>  <PubChem CID>
7794

>  <SMILES>
CC(CCC=C(C)C)CC=O

>  <InChIKey>
NEHNMFOYXAPHSD-JTQLQIEISA-N

>  <Molecular Formula>
C10H18O

>  <Target Organism>
Aedes aegypti

>  <Reference DOI>
10.1111/j.1948-7134.2009.00002.x

>  <Activity Label>
1

>  <Repellency>
Active

>  <IUPAC>
3,7-dimethyloct-6-enal

>  <Common name>
Citronellal

$$$$
Compound 74
     RDKit          2D

 11 10  0  0  0  0  0  0  0  0999 V2000
    0.0000    0.0000    0.0000 O   0  0  0  0  0  0  0  0  0  0  0  0
    1.2797   -0.6631    0.0000 C   0  0  0  0  0  0  0  0  0  0  0  0
    2.5594    0.2443    0.0000 C   0  0  0  0  0  0  0  0  0  0  0  0
    3.8391   -0.4188    0.0000 C   0  0  0  0  0  0  0  0  0  0  0  0
    5.1188    0.4886    0.0000 C   0  0  0  0  0  0  0  0  0  0  0  0
    3.7577   -1.8963    0.0000 C   0  0  0  0  0  0  0  0  0  0  0  0
    6.3986   -0.1745    0.0000 C   0  0  0  0  0  0  0  0  0  0  0  0
    7.6783    0.7329    0.0000 C   0  0  0  0  0  0  0  0  0  0  0  0
    8.9580    0.0698    0.0000 C   0  0  0  0  0  0  0  0  0  0  0  0
   10.2377    0.9772    0.0000 C   0  0  0  0  0  0  0  0  0  0  0  0
    8.8766   -1.4076    0.0000 C   0  0  0  0  0  0  0  0  0  0  0  0
  1  2  1  0
  2  3  1  0
  3  4  2  0
  4  5  1  0
  4  6  1  0
  5  7  1  0
  7  8  1  0
  8  9  2  0
  9 10  1  0
  9 11  1  0
M  END
>  <Structure No>
74

>  <Molecule Name>
Geraniol

>  <PubChem CID>
637566

>  <SMILES>
CC(C)=CCC/C(\C)=C/CO

>  <InChIKey>
GLZPCOQZEFWAFX-JXMROGBWSA-N

>  <Molecular Formula>
C10H18O

>  <Target Organism>
Aedes aegypti

>  <Reference DOI>
10.1111/j.1948-7134.2009.00002.x

>  <Activity Label>
1

>  <Repellency>
Active

>  <IUPAC>


>  <Common name>
GERANIOL

$$$$
Compound 75
     RDKit          2D

  0  0  0  0  0  0  0  0  0  0999 V3000
M  V30 BEGIN CTAB
M  V30 COUNTS 11 10 0 0 0
M  V30 BEGIN ATOM
M  V30 1 O 0.000000 0.000000 0.000000 0
M  V30 2 C -1.314600 0.752900 0.000000 0
M  V30 3 C -2.629200 0.095600 0.000000 0
M  V30 4 C -3.943800 0.860400 0.000000 0
M  V30 5 C -5.258400 0.203100 0.000000 0
M  V30 6 C -4.051300 2.378200 0.000000 0
M  V30 7 C -6.573000 0.968000 0.000000 0
M  V30 8 C -7.887600 0.310700 0.000000 0
M  V30 9 C -9.202200 1.075500 0.000000 0
M  V30 10 C -10.516800 0.418200 0.000000 0
M  V30 11 C -9.309800 2.593300 0.000000 0
M  V30 END ATOM
M  V30 BEGIN BOND
M  V30 1 1 1 2
M  V30 2 1 2 3
M  V30 3 1 3 4
M  V30 4 1 4 5
M  V30 5 1 4 6 CFG=3
M  V30 6 1 5 7
M  V30 7 1 7 8
M  V30 8 2 8 9
M  V30 9 1 9 10
M  V30 10 1 9 11
M  V30 END BOND
M  V30 BEGIN COLLECTION
M  V30 MDLV30/STERAC1 ATOMS=(1 4)
M  V30 END COLLECTION
M  V30 END CTAB
M  END
>  <Structure No>
75

>  <Molecule Name>
Citronellol

>  <PubChem CID>
8842

>  <SMILES>
CC(CCC=C(C)C)CCO

>  <InChIKey>
QMVPMAAFGQKVCJ-JTQLQIEISA-N

>  <Molecular Formula>
C10H20O

>  <Target Organism>
Anopheles spp.

>  <Reference DOI>
10.1186/s13071-017-2122-8

>  <Activity Label>
1

>  <Repellency>
Active

>  <IUPAC>
3,7-dimethyloct-6-en-1-ol

>  <Common name>
Citronellol

$$$$
Compound 76
     RDKit          2D

  0  0  0  0  0  0  0  0  0  0999 V3000
M  V30 BEGIN CTAB
M  V30 COUNTS 11 10 0 0 0
M  V30 BEGIN ATOM
M  V30 1 O 0.000000 0.000000 0.000000 0
M  V30 2 C -0.034300 -1.452000 0.000000 0
M  V30 3 C -1.360600 -2.183800 0.000000 0
M  V30 4 C 1.223400 -2.183800 0.000000 0
M  V30 5 C -2.686900 -1.394900 0.000000 0
M  V30 6 C -1.394900 -3.635900 0.000000 0
M  V30 7 C -4.013200 -2.092300 0.000000 0
M  V30 8 C -5.339500 -1.303400 0.000000 0
M  V30 9 C -6.665800 -2.000800 0.000000 0
M  V30 10 C -7.992100 -1.211900 0.000000 0
M  V30 11 C -9.318400 -1.909400 0.000000 0
M  V30 END ATOM
M  V30 BEGIN BOND
M  V30 1 2 1 2
M  V30 2 1 2 3
M  V30 3 1 2 4
M  V30 4 1 3 5
M  V30 5 1 3 6 CFG=1
M  V30 6 1 5 7
M  V30 7 1 7 8
M  V30 8 1 8 9
M  V30 9 1 9 10
M  V30 10 1 10 11
M  V30 END BOND
M  V30 BEGIN COLLECTION
M  V30 MDLV30/STERAC1 ATOMS=(1 3)
M  V30 END COLLECTION
M  V30 END CTAB
M  END
>  <Structure No>
76

>  <Molecule Name>
3-Methyl-2-nonanone

>  <PubChem CID>
12634597

>  <SMILES>
CCCCCCC(C)C(C)=O

>  <InChIKey>
BMLJPODSPMQJKF-UHFFFAOYSA-N

>  <Molecular Formula>
C10H20O

>  <Target Organism>
Aedes aegypti

>  <Reference DOI>
10.1371/annotation/1dc83f26-8045-4b63-8a86-24c7b71a7f79

>  <Activity Label>
1

>  <Repellency>
Active

>  <IUPAC>
3-methylnonan-2-one

>  <Common name>
3-Methyl-2-nonanone

$$$$
Compound 77
     RDKit          2D

 11 10  0  0  0  0  0  0  0  0999 V2000
    0.0000    0.0000    0.0000 O   0  0  0  0  0  0  0  0  0  0  0  0
   -0.0763    1.6170    0.0000 C   0  0  0  0  0  0  0  0  0  0  0  0
    1.1713    2.4318    0.0000 C   0  0  0  0  0  0  0  0  0  0  0  0
   -1.4769    2.4318    0.0000 C   0  0  0  0  0  0  0  0  0  0  0  0
    2.4191    1.6934    0.0000 C   0  0  0  0  0  0  0  0  0  0  0  0
    3.6669    2.5082    0.0000 C   0  0  0  0  0  0  0  0  0  0  0  0
    4.9146    1.7697    0.0000 C   0  0  0  0  0  0  0  0  0  0  0  0
    6.1624    2.5846    0.0000 C   0  0  0  0  0  0  0  0  0  0  0  0
    7.4102    1.8461    0.0000 C   0  0  0  0  0  0  0  0  0  0  0  0
    8.6579    2.6610    0.0000 C   0  0  0  0  0  0  0  0  0  0  0  0
    9.9057    1.9225    0.0000 C   0  0  0  0  0  0  0  0  0  0  0  0
  1  2  2  0
  2  3  1  0
  2  4  1  0
  3  5  1  0
  5  6  1  0
  6  7  1  0
  7  8  1  0
  8  9  1  0
  9 10  1  0
 10 11  1  0
M  END
>  <Structure No>
77

>  <Molecule Name>
2-Decanone

>  <PubChem CID>
12741

>  <SMILES>
CCCCCCCCC(C)=O

>  <InChIKey>
ZAJNGDIORYACQU-UHFFFAOYSA-N

>  <Molecular Formula>
C10H20O

>  <Target Organism>
Aedes albopictus

>  <Reference DOI>
10.1021/acs.jafc.2c05537

>  <Activity Label>
1

>  <Repellency>
Active

>  <IUPAC>
decan-2-one

>  <Common name>
2-Decanone

$$$$
Compound 78
     RDKit          2D

  0  0  0  0  0  0  0  0  0  0999 V3000
M  V30 BEGIN CTAB
M  V30 COUNTS 11 10 0 0 0
M  V30 BEGIN ATOM
M  V30 1 O 0.000000 0.000000 0.000000 0
M  V30 2 C 1.253200 0.877200 0.000000 0
M  V30 3 C 0.375900 2.289900 0.000000 0
M  V30 4 C 2.506400 1.754500 0.000000 0
M  V30 5 C 1.891200 -0.375900 0.000000 0
M  V30 6 C 1.013900 3.702700 0.000000 0
M  V30 7 C 3.759600 1.116500 0.000000 0
M  V30 8 C 5.012800 1.993700 0.000000 0
M  V30 9 C 6.266100 1.355700 0.000000 0
M  V30 10 C 7.519300 2.233000 0.000000 0
M  V30 11 C 6.186300 -0.091100 0.000000 0
M  V30 END ATOM
M  V30 BEGIN BOND
M  V30 1 1 2 1
M  V30 2 1 2 3
M  V30 3 1 2 4
M  V30 4 1 2 5 CFG=1
M  V30 5 2 3 6
M  V30 6 1 4 7
M  V30 7 1 7 8
M  V30 8 2 8 9
M  V30 9 1 9 10
M  V30 10 1 9 11
M  V30 END BOND
M  V30 BEGIN COLLECTION
M  V30 MDLV30/STERAC1 ATOMS=(1 2)
M  V30 END COLLECTION
M  V30 END CTAB
M  END
>  <Structure No>
78

>  <Molecule Name>
Linalool

>  <PubChem CID>
6549

>  <SMILES>
CC(CCC=C(C)C)(C=C)O

>  <InChIKey>
CDOSHBSSFJOMGT-SNVBAGLBSA-N

>  <Molecular Formula>
C10H18O

>  <Target Organism>
Aedes aegypti

>  <Reference DOI>
10.1111/j.1948-7134.2009.00002.x

>  <Activity Label>
1

>  <Repellency>
Active

>  <IUPAC>
3,7-dimethylocta-1,6-dien-3-ol

>  <Common name>
Linalool

$$$$
Compound 79
     RDKit          2D

  0  0  0  0  0  0  0  0  0  0999 V3000
M  V30 BEGIN CTAB
M  V30 COUNTS 11 10 0 0 0
M  V30 BEGIN ATOM
M  V30 1 O 0.000000 0.000000 0.000000 0
M  V30 2 C -1.332200 0.763000 0.000000 0
M  V30 3 C 1.259500 0.763000 0.000000 0
M  V30 4 C -2.664400 0.024200 0.000000 0
M  V30 5 C 2.519100 0.024200 0.000000 0
M  V30 6 O -2.700800 -1.441200 0.000000 0
M  V30 7 C -3.996700 0.799300 0.000000 0
M  V30 8 C 3.778700 0.799300 0.000000 0
M  V30 9 O -5.328900 0.060500 0.000000 0
M  V30 10 C 5.038300 0.060500 0.000000 0
M  V30 11 C 3.742400 2.337400 0.000000 0
M  V30 END ATOM
M  V30 BEGIN BOND
M  V30 1 1 1 2
M  V30 2 1 1 3
M  V30 3 1 2 4
M  V30 4 1 3 5
M  V30 5 1 4 6 CFG=1
M  V30 6 1 4 7
M  V30 7 1 5 8
M  V30 8 1 7 9
M  V30 9 1 8 10
M  V30 10 1 8 11
M  V30 END BOND
M  V30 BEGIN COLLECTION
M  V30 MDLV30/STERAC1 ATOMS=(1 4)
M  V30 END COLLECTION
M  V30 END CTAB
M  END
>  <Structure No>
79

>  <Molecule Name>
3-(3-Methylbutoxy)-1,2-propanediol

>  <PubChem CID>
95650

>  <SMILES>
CC(C)CCOCC(CO)O

>  <InChIKey>
AIOHBDYXYKMBIF-QMMMGPOBSA-N

>  <Molecular Formula>
C8H18O3

>  <Target Organism>
Aedes aegypti

>  <Reference DOI>
10.3390/toxics11100837

>  <Activity Label>
1

>  <Repellency>
Active

>  <IUPAC>
3-(3-methylbutoxy)propane-1,2-diol

>  <Common name>
3-(3-Methylbutoxy)-1,2-propanediol

$$$$
Compound 80
     RDKit          2D

 11 10  0  0  0  0  0  0  0  0999 V2000
    0.0000    0.0000    0.0000 O   0  0  0  0  0  0  0  0  0  0  0  0
    1.2691    0.7688    0.0000 C   0  0  0  0  0  0  0  0  0  0  0  0
    1.2325    2.3186    0.0000 C   0  0  0  0  0  0  0  0  0  0  0  0
    2.5016    3.0874    0.0000 C   0  0  0  0  0  0  0  0  0  0  0  0
    2.5016    1.5742    0.0000 C   0  0  0  0  0  0  0  0  0  0  0  0
   -0.1098    3.0874    0.0000 C   0  0  0  0  0  0  0  0  0  0  0  0
    3.7708    2.3430    0.0000 C   0  0  0  0  0  0  0  0  0  0  0  0
    2.4650    0.0976    0.0000 C   0  0  0  0  0  0  0  0  0  0  0  0
   -1.4521    2.3430    0.0000 C   0  0  0  0  0  0  0  0  0  0  0  0
    5.0399    3.1240    0.0000 C   0  0  0  0  0  0  0  0  0  0  0  0
    6.3091    3.9050    0.0000 N   0  0  0  0  0  0  0  0  0  0  0  0
  1  2  2  0
  2  3  1  0
  3  4  1  0
  3  5  1  0
  3  6  1  0
  4  7  1  0
  5  8  1  0
  6  9  1  0
  7 10  1  0
 10 11  3  0
M  END
>  <Structure No>
80

>  <Molecule Name>
4-Ethyl-4-formylhexanenitrile

>  <PubChem CID>
76248

>  <SMILES>
CCC(CC)(CCC#N)C=O

>  <InChIKey>
AMUXIQHQXOKMTN-UHFFFAOYSA-N

>  <Molecular Formula>
C9H15NO

>  <Target Organism>
Aedes aegypti

>  <Reference DOI>
10.3390/toxics11100837

>  <Activity Label>
1

>  <Repellency>
Active

>  <IUPAC>
4-ethyl-4-formylhexanenitrile

>  <Common name>
4-Ethyl-4-formylhexanenitrile

$$$$
Compound 81
     RDKit          2D

 11 10  0  0  0  0  0  0  0  0999 V2000
    0.0000    0.0000    0.0000 O   0  0  0  0  0  0  0  0  0  0  0  0
   -1.3250    0.7588    0.0000 N   0  0  0  0  0  0  0  0  0  0  0  0
   -1.3611    2.2886    0.0000 C   0  0  0  0  0  0  0  0  0  0  0  0
   -2.6861    3.0596    0.0000 C   0  0  0  0  0  0  0  0  0  0  0  0
   -0.1084    3.0596    0.0000 C   0  0  0  0  0  0  0  0  0  0  0  0
   -4.0112    2.3248    0.0000 C   0  0  0  0  0  0  0  0  0  0  0  0
    1.1443    2.3248    0.0000 C   0  0  0  0  0  0  0  0  0  0  0  0
   -5.3362    3.0957    0.0000 C   0  0  0  0  0  0  0  0  0  0  0  0
    2.3970    3.0957    0.0000 C   0  0  0  0  0  0  0  0  0  0  0  0
   -6.6612    2.3609    0.0000 C   0  0  0  0  0  0  0  0  0  0  0  0
    3.6498    2.3609    0.0000 C   0  0  0  0  0  0  0  0  0  0  0  0
  1  2  1  0
  2  3  2  0
  3  4  1  0
  3  5  1  0
  4  6  1  0
  5  7  1  0
  6  8  1  0
  7  9  1  0
  8 10  1  0
  9 11  1  0
M  END
>  <Structure No>
81

>  <Molecule Name>
5-Nonanone, oxime

>  <PubChem CID>
333893

>  <SMILES>
CCCCC(CCCC)=NO

>  <InChIKey>
DFMZGZYTSBUWAH-UHFFFAOYSA-N

>  <Molecular Formula>
C9H19NO

>  <Target Organism>
Aedes aegypti

>  <Reference DOI>
10.3390/toxics11100837

>  <Activity Label>
1

>  <Repellency>
Active

>  <IUPAC>
N-nonan-5-ylidenehydroxylamine

>  <Common name>
5-Nonanone, oxime

$$$$
Compound 82
     RDKit          2D

 11 11  0  0  0  0  0  0  0  0999 V2000
    0.0000    0.0000    0.0000 O   0  0  0  0  0  0  0  0  0  0  0  0
   -1.3491    0.7849    0.0000 C   0  0  0  0  0  0  0  0  0  0  0  0
   -1.4595    2.3426    0.0000 O   0  0  0  0  0  0  0  0  0  0  0  0
   -2.6983    0.1226    0.0000 C   0  0  0  0  0  0  0  0  0  0  0  0
   -4.0475    0.9076    0.0000 C   0  0  0  0  0  0  0  0  0  0  0  0
   -5.3966    0.2453    0.0000 C   0  0  0  0  0  0  0  0  0  0  0  0
   -6.7458    1.0302    0.0000 C   0  0  0  0  0  0  0  0  0  0  0  0
   -5.5070   -1.0915    0.0000 C   0  0  0  0  0  0  0  0  0  0  0  0
   -8.0950    0.3679    0.0000 C   0  0  0  0  0  0  0  0  0  0  0  0
   -6.8562   -1.7539    0.0000 C   0  0  0  0  0  0  0  0  0  0  0  0
   -8.2053   -0.9689    0.0000 C   0  0  0  0  0  0  0  0  0  0  0  0
  1  2  2  0
  2  3  1  0
  2  4  1  0
  4  5  1  0
  5  6  1  0
  6  7  1  0
  6  8  1  0
  7  9  1  0
  8 10  1  0
  9 11  1  0
 10 11  1  0
M  END
>  <Structure No>
82

>  <Molecule Name>
Cyclohexanepropanoic acid

>  <PubChem CID>
69702

>  <SMILES>
OC(CCC1CCCCC1)=O

>  <InChIKey>
HJZLEGIHUQOJBA-UHFFFAOYSA-N

>  <Molecular Formula>
C9H16O2

>  <Target Organism>
Anopheles spp.

>  <Reference DOI>
10.1186/s13071-017-2122-8

>  <Activity Label>
1

>  <Repellency>
Active

>  <IUPAC>
3-cyclohexylpropanoic acid

>  <Common name>
Cyclohexanepropanoic acid

$$$$
Compound 83
     RDKit          2D

 11 11  0  0  0  0  0  0  0  0999 V2000
    0.0000    0.0000    0.0000 O   0  0  0  0  0  0  0  0  0  0  0  0
   -1.3365    0.8065    0.0000 C   0  0  0  0  0  0  0  0  0  0  0  0
   -0.0691    1.6015    0.0000 C   0  0  0  0  0  0  0  0  0  0  0  0
   -2.6731    1.6131    0.0000 C   0  0  0  0  0  0  0  0  0  0  0  0
   -1.3711   -0.6567    0.0000 C   0  0  0  0  0  0  0  0  0  0  0  0
    1.1983    0.9102    0.0000 C   0  0  0  0  0  0  0  0  0  0  0  0
   -4.0097    0.9217    0.0000 C   0  0  0  0  0  0  0  0  0  0  0  0
   -2.7077   -1.3480    0.0000 C   0  0  0  0  0  0  0  0  0  0  0  0
    2.4657    1.7052    0.0000 C   0  0  0  0  0  0  0  0  0  0  0  0
   -4.0442   -0.5415    0.0000 C   0  0  0  0  0  0  0  0  0  0  0  0
    3.7331    1.0139    0.0000 O   0  0  0  0  0  0  0  0  0  0  0  0
  1  2  1  0
  2  3  1  0
  2  4  1  0
  2  5  1  0
  3  6  2  3
  4  7  1  0
  5  8  1  0
  6  9  1  0
  7 10  1  0
  9 11  1  0
  8 10  1  0
M  END
>  <Structure No>
83

>  <Molecule Name>
1-(3-Hydroxyprop-1-enyl)cyclohexan-1-ol

>  <PubChem CID>
282443

>  <SMILES>
OCC=CC1(CCCCC1)O

>  <InChIKey>
CJTNFKINCCTDIP-UHFFFAOYSA-N

>  <Molecular Formula>
C9H16O2

>  <Target Organism>
Aedes aegypti

>  <Reference DOI>
10.3390/toxics11100837

>  <Activity Label>
1

>  <Repellency>
Active

>  <IUPAC>
1-(3-hydroxyprop-1-enyl)cyclohexan-1-ol

>  <Common name>
1-(3-Hydroxyprop-1-enyl)cyclohexan-1-ol

$$$$
Compound 84
     RDKit          2D

 11 11  0  0  0  0  0  0  0  0999 V2000
    0.0000    0.0000    0.0000 O   0  0  0  0  0  0  0  0  0  0  0  0
    1.2639    0.7656    0.0000 C   0  0  0  0  0  0  0  0  0  0  0  0
    1.2275   -0.7049    0.0000 C   0  0  0  0  0  0  0  0  0  0  0  0
    2.5279    1.5435    0.0000 C   0  0  0  0  0  0  0  0  0  0  0  0
   -0.0729    1.5435    0.0000 C   0  0  0  0  0  0  0  0  0  0  0  0
    1.1910   -2.1755    0.0000 C   0  0  0  0  0  0  0  0  0  0  0  0
    2.4915    3.0870    0.0000 C   0  0  0  0  0  0  0  0  0  0  0  0
   -0.1093    3.0870    0.0000 C   0  0  0  0  0  0  0  0  0  0  0  0
    1.1546   -3.6461    0.0000 C   0  0  0  0  0  0  0  0  0  0  0  0
    1.1546    3.8649    0.0000 C   0  0  0  0  0  0  0  0  0  0  0  0
    2.4186   -4.3753    0.0000 O   0  0  0  0  0  0  0  0  0  0  0  0
  1  2  1  0
  2  3  1  0
  2  4  1  0
  2  5  1  0
  3  6  3  0
  4  7  1  0
  5  8  1  0
  6  9  1  0
  7 10  1  0
  9 11  1  0
  8 10  1  0
M  END
>  <Structure No>
84

>  <Molecule Name>
1-(3-Hydroxy-1-propyn-1-yl)cyclohexanol

>  <PubChem CID>
4277820

>  <SMILES>
OCC#CC1(CCCCC1)O

>  <InChIKey>
IACPYUXMRKYCDO-UHFFFAOYSA-N

>  <Molecular Formula>
C9H14O2

>  <Target Organism>
Aedes aegypti

>  <Reference DOI>
10.3390/toxics11100837

>  <Activity Label>
1

>  <Repellency>
Active

>  <IUPAC>
1-(3-hydroxyprop-1-ynyl)cyclohexan-1-ol

>  <Common name>
1-(3-Hydroxy-1-propyn-1-yl)cyclohexanol

$$$$
Compound 85
     RDKit          2D

 11 11  0  0  0  0  0  0  0  0999 V2000
    0.0000    0.0000    0.0000 O   0  0  0  0  0  0  0  0  0  0  0  0
   -1.3402   -0.6932    0.0000 C   0  0  0  0  0  0  0  0  0  0  0  0
    1.2709   -0.6932    0.0000 C   0  0  0  0  0  0  0  0  0  0  0  0
   -2.6805    0.1039    0.0000 C   0  0  0  0  0  0  0  0  0  0  0  0
   -1.3749   -2.1606    0.0000 C   0  0  0  0  0  0  0  0  0  0  0  0
    2.5419    0.0924    0.0000 C   0  0  0  0  0  0  0  0  0  0  0  0
   -4.0208   -0.5892    0.0000 C   0  0  0  0  0  0  0  0  0  0  0  0
   -2.7152   -2.8538    0.0000 C   0  0  0  0  0  0  0  0  0  0  0  0
   -4.0554   -2.0566    0.0000 C   0  0  0  0  0  0  0  0  0  0  0  0
   -5.3957   -2.7498    0.0000 C   0  0  0  0  0  0  0  0  0  0  0  0
   -5.4304   -4.2172    0.0000 O   0  0  0  0  0  0  0  0  0  0  0  0
  1  2  1  0
  1  3  1  0
  2  4  2  0
  2  5  1  0
  3  6  1  0
  4  7  1  0
  5  8  2  0
  7  9  2  0
  9 10  1  0
 10 11  1  0
  8  9  1  0
M  END
>  <Structure No>
85

>  <Molecule Name>
4-Ethoxybenzyl alcohol

>  <PubChem CID>
80345

>  <SMILES>
CCOc1ccc(CO)cc1

>  <InChIKey>
UKFLLQIRBABMKF-UHFFFAOYSA-N

>  <Molecular Formula>
C9H12O2

>  <Target Organism>
Aedes aegypti

>  <Reference DOI>
10.3390/toxics11100837

>  <Activity Label>
1

>  <Repellency>
Active

>  <IUPAC>
(4-ethoxyphenyl)methanol

>  <Common name>
4-Ethoxybenzyl alcohol

$$$$
Compound 86
     RDKit          2D

 11 11  0  0  0  0  0  0  0  0999 V2000
    0.0000    0.0000    0.0000 O   0  0  0  0  0  0  0  0  0  0  0  0
   -1.3296   -0.6992    0.0000 C   0  0  0  0  0  0  0  0  0  0  0  0
    1.2608   -0.6992    0.0000 C   0  0  0  0  0  0  0  0  0  0  0  0
   -2.6592    0.0687    0.0000 C   0  0  0  0  0  0  0  0  0  0  0  0
   -1.3640   -2.1549    0.0000 C   0  0  0  0  0  0  0  0  0  0  0  0
   -3.9889   -0.6304    0.0000 C   0  0  0  0  0  0  0  0  0  0  0  0
   -2.6936   -2.8656    0.0000 C   0  0  0  0  0  0  0  0  0  0  0  0
   -4.0233   -2.0861    0.0000 C   0  0  0  0  0  0  0  0  0  0  0  0
   -5.3529   -2.7968    0.0000 C   0  0  0  0  0  0  0  0  0  0  0  0
   -6.6825   -2.0059    0.0000 C   0  0  0  0  0  0  0  0  0  0  0  0
   -8.0122   -2.7051    0.0000 O   0  0  0  0  0  0  0  0  0  0  0  0
  1  2  1  0
  1  3  1  0
  2  4  2  0
  2  5  1  0
  4  6  1  0
  5  7  2  0
  6  8  2  0
  8  9  1  0
  9 10  1  0
 10 11  1  0
  7  8  1  0
M  END
>  <Structure No>
86

>  <Molecule Name>
4-Methoxyphenethyl alcohol

>  <PubChem CID>
69705

>  <SMILES>
COc1ccc(CCO)cc1

>  <InChIKey>
AUWDOZOUJWEPBA-UHFFFAOYSA-N

>  <Molecular Formula>
C9H12O2

>  <Target Organism>
Aedes aegypti

>  <Reference DOI>
10.3390/toxics11100837

>  <Activity Label>
1

>  <Repellency>
Active

>  <IUPAC>
2-(4-methoxyphenyl)ethanol

>  <Common name>
4-Methoxyphenethyl alcohol

$$$$
Compound 87
     RDKit          2D

  0  0  0  0  0  0  0  0  0  0999 V3000
M  V30 BEGIN CTAB
M  V30 COUNTS 11 11 0 0 0
M  V30 BEGIN ATOM
M  V30 1 O 0.000000 0.000000 0.000000 0
M  V30 2 C -1.334000 -0.690000 0.000000 0
M  V30 3 C 1.265000 -0.690000 0.000000 0
M  V30 4 C -2.668000 0.115000 0.000000 0
M  V30 5 C -1.368500 -2.150500 0.000000 0
M  V30 6 C -4.002100 -0.575000 0.000000 0
M  V30 7 C -2.702500 -2.840500 0.000000 0
M  V30 8 C -4.036600 -2.035500 0.000000 0
M  V30 9 C -5.370600 -2.725500 0.000000 0
M  V30 10 O -5.405100 -4.186100 0.000000 0
M  V30 11 C -6.704700 -1.932000 0.000000 0
M  V30 END ATOM
M  V30 BEGIN BOND
M  V30 1 1 1 2
M  V30 2 1 1 3
M  V30 3 2 2 4
M  V30 4 1 2 5
M  V30 5 1 4 6
M  V30 6 2 5 7
M  V30 7 2 6 8
M  V30 8 1 8 9
M  V30 9 1 9 10
M  V30 10 1 9 11 CFG=1
M  V30 11 1 7 8
M  V30 END BOND
M  V30 BEGIN COLLECTION
M  V30 MDLV30/STERAC1 ATOMS=(1 9)
M  V30 END COLLECTION
M  V30 END CTAB
M  END
>  <Structure No>
87

>  <Molecule Name>
1-(4-Methoxyphenyl)ethanol

>  <PubChem CID>
101148

>  <SMILES>
CC(c(cc1)ccc1OC)O

>  <InChIKey>
IUUULXXWNYKJSL-ZETCQYMHSA-N

>  <Molecular Formula>
C9H12O2

>  <Target Organism>
Aedes aegypti

>  <Reference DOI>
10.3390/toxics11100837

>  <Activity Label>
1

>  <Repellency>
Active

>  <IUPAC>
1-(4-methoxyphenyl)ethanol

>  <Common name>
1-(4-Methoxyphenyl)ethanol

$$$$
Compound 88
     RDKit          2D

 11 11  0  0  0  0  0  0  0  0999 V2000
    0.0000    0.0000    0.0000 O   0  0  0  0  0  0  0  0  0  0  0  0
   -0.0464   -1.4748    0.0000 C   0  0  0  0  0  0  0  0  0  0  0  0
    1.2774    0.8245    0.0000 C   0  0  0  0  0  0  0  0  0  0  0  0
   -1.4167   -2.1948    0.0000 C   0  0  0  0  0  0  0  0  0  0  0  0
    1.2309   -2.1948    0.0000 C   0  0  0  0  0  0  0  0  0  0  0  0
   -2.7870   -1.3703    0.0000 O   0  0  0  0  0  0  0  0  0  0  0  0
   -1.4632   -3.6696    0.0000 C   0  0  0  0  0  0  0  0  0  0  0  0
    1.1844   -3.6696    0.0000 C   0  0  0  0  0  0  0  0  0  0  0  0
   -0.1858   -4.3780    0.0000 C   0  0  0  0  0  0  0  0  0  0  0  0
    2.4619   -4.3780    0.0000 C   0  0  0  0  0  0  0  0  0  0  0  0
    2.4154   -5.8528    0.0000 C   0  0  0  0  0  0  0  0  0  0  0  0
  1  2  1  0
  1  3  1  0
  2  4  2  0
  2  5  1  0
  4  6  1  0
  4  7  1  0
  5  8  2  0
  7  9  2  0
  8 10  1  0
 10 11  1  0
  8  9  1  0
M  END
>  <Structure No>
88

>  <Molecule Name>
4-Ethylguaiacol

>  <PubChem CID>
62465

>  <SMILES>
CCc(cc1)cc(OC)c1O

>  <InChIKey>
CHWNEIVBYREQRF-UHFFFAOYSA-N

>  <Molecular Formula>
C9H12O2

>  <Target Organism>
Glossina morsitans morsitans

>  <Reference DOI>
10.1007/s10886-007-9272-7

>  <Activity Label>
1

>  <Repellency>
Active

>  <IUPAC>
4-ethyl-2-methoxyphenol

>  <Common name>
4-Ethylguaiacol

$$$$
Compound 89
     RDKit          2D

 11 11  0  0  0  0  0  0  0  0999 V2000
    0.0000    0.0000    0.0000 Cl  0  0  0  0  0  0  0  0  0  0  0  0
   -1.3019    0.7575    0.0000 C   0  0  0  0  0  0  0  0  0  0  0  0
   -1.3374    2.2607    0.0000 C   0  0  0  0  0  0  0  0  0  0  0  0
   -2.6039    0.0355    0.0000 C   0  0  0  0  0  0  0  0  0  0  0  0
   -2.6394    3.0182    0.0000 C   0  0  0  0  0  0  0  0  0  0  0  0
   -3.9059    0.7930    0.0000 C   0  0  0  0  0  0  0  0  0  0  0  0
   -3.9414    2.2962    0.0000 C   0  0  0  0  0  0  0  0  0  0  0  0
   -5.2434    3.0655    0.0000 O   0  0  0  0  0  0  0  0  0  0  0  0
   -6.5454    2.3435    0.0000 C   0  0  0  0  0  0  0  0  0  0  0  0
   -7.8474    3.1011    0.0000 C   0  0  0  0  0  0  0  0  0  0  0  0
   -9.1494    2.3790    0.0000 O   0  0  0  0  0  0  0  0  0  0  0  0
  1  2  1  0
  2  3  2  0
  2  4  1  0
  3  5  1  0
  4  6  2  0
  5  7  2  0
  7  8  1  0
  8  9  1  0
  9 10  1  0
 10 11  1  0
  6  7  1  0
M  END
>  <Structure No>
89

>  <Molecule Name>
2-(4-Chlorophenoxy)ethanol

>  <PubChem CID>
15907

>  <SMILES>
OCCOc(cc1)ccc1Cl

>  <InChIKey>
GEGSSUSEWOHAFE-UHFFFAOYSA-N

>  <Molecular Formula>
C8H9O2Cl

>  <Target Organism>
Aedes aegypti

>  <Reference DOI>
10.3390/toxics11100837

>  <Activity Label>
1

>  <Repellency>
Active

>  <IUPAC>
2-(4-chlorophenoxy)ethanol

>  <Common name>
2-(4-Chlorophenoxy)ethanol

$$$$
Compound 90
     RDKit          2D

 11 11  0  0  0  0  0  0  0  0999 V2000
    0.0000    0.0000    0.0000 O   0  0  0  0  0  0  0  0  0  0  0  0
    1.1916    0.7660    0.0000 C   0  0  0  0  0  0  0  0  0  0  0  0
    1.1186    2.3103    0.0000 C   0  0  0  0  0  0  0  0  0  0  0  0
    2.3103    3.0763    0.0000 C   0  0  0  0  0  0  0  0  0  0  0  0
   -0.2188    3.0763    0.0000 C   0  0  0  0  0  0  0  0  0  0  0  0
    2.2373    4.6206    0.0000 C   0  0  0  0  0  0  0  0  0  0  0  0
   -0.2918    4.6206    0.0000 C   0  0  0  0  0  0  0  0  0  0  0  0
    0.8998    5.3988    0.0000 C   0  0  0  0  0  0  0  0  0  0  0  0
    0.8268    6.9431    0.0000 C   0  0  0  0  0  0  0  0  0  0  0  0
    2.0184    7.7213    0.0000 C   0  0  0  0  0  0  0  0  0  0  0  0
   -0.5107    7.7213    0.0000 C   0  0  0  0  0  0  0  0  0  0  0  0
  1  2  2  0
  2  3  1  0
  3  4  2  0
  3  5  1  0
  4  6  1  0
  5  7  2  0
  6  8  2  0
  8  9  1  0
  9 10  1  0
  9 11  1  0
  7  8  1  0
M  END
>  <Structure No>
90

>  <Molecule Name>
Cuminaldehyde

>  <PubChem CID>
326

>  <SMILES>
CC(C)c1ccc(C=O)cc1

>  <InChIKey>
WTWBUQJHJGUZCY-UHFFFAOYSA-N

>  <Molecular Formula>
C10H12O

>  <Target Organism>
Aedes albopictus

>  <Reference DOI>
10.1021/acs.jafc.2c05537

>  <Activity Label>
1

>  <Repellency>
Active

>  <IUPAC>
4-propan-2-ylbenzaldehyde

>  <Common name>
Cuminaldehyde

$$$$
Compound 91
     RDKit          2D

 11 11  0  0  0  0  0  0  0  0999 V2000
    0.0000    0.0000    0.0000 O   0  0  0  0  0  0  0  0  0  0  0  0
   -0.0358    1.5185    0.0000 C   0  0  0  0  0  0  0  0  0  0  0  0
   -1.3511    2.2717    0.0000 C   0  0  0  0  0  0  0  0  0  0  0  0
    1.2076    2.2717    0.0000 C   0  0  0  0  0  0  0  0  0  0  0  0
   -1.3869    3.7903    0.0000 C   0  0  0  0  0  0  0  0  0  0  0  0
    1.1717    3.7903    0.0000 C   0  0  0  0  0  0  0  0  0  0  0  0
   -0.1434    4.5435    0.0000 C   0  0  0  0  0  0  0  0  0  0  0  0
   -0.1793    6.0621    0.0000 C   0  0  0  0  0  0  0  0  0  0  0  0
   -0.2152    7.5806    0.0000 C   0  0  0  0  0  0  0  0  0  0  0  0
    1.2674    6.0979    0.0000 C   0  0  0  0  0  0  0  0  0  0  0  0
   -1.6978    6.0979    0.0000 C   0  0  0  0  0  0  0  0  0  0  0  0
  1  2  2  0
  2  3  1  0
  2  4  1  0
  3  5  1  0
  4  6  1  0
  5  7  1  0
  7  8  1  0
  8  9  1  0
  8 10  1  0
  8 11  1  0
  6  7  1  0
M  END
>  <Structure No>
91

>  <Molecule Name>
4-tert-Butylcyclohexanone

>  <PubChem CID>
7392

>  <SMILES>
CC(C)(C)C(CC1)CCC1=O

>  <InChIKey>
YKFKEYKJGVSEIX-UHFFFAOYSA-N

>  <Molecular Formula>
C10H18O

>  <Target Organism>
Aedes aegypti

>  <Reference DOI>
10.1371/annotation/1dc83f26-8045-4b63-8a86-24c7b71a7f79

>  <Activity Label>
1

>  <Repellency>
Active

>  <IUPAC>
4-tert-butylcyclohexan-1-one

>  <Common name>
4-tert-Butylcyclohexanone

$$$$
Compound 92
     RDKit          2D

  0  0  0  0  0  0  0  0  0  0999 V3000
M  V30 BEGIN CTAB
M  V30 COUNTS 11 11 0 0 0
M  V30 BEGIN ATOM
M  V30 1 O 0.000000 0.000000 0.000000 0
M  V30 2 C -0.034900 -1.480700 0.000000 0
M  V30 3 C 1.247500 -2.191900 0.000000 0
M  V30 4 C -1.387400 -2.191900 0.000000 0
M  V30 5 C 1.212500 -3.672700 0.000000 0
M  V30 6 C 2.530000 -1.387400 0.000000 0
M  V30 7 C -2.739900 -1.387400 0.000000 0
M  V30 8 C 2.495100 -4.383900 0.000000 0
M  V30 9 C 3.812600 -2.122000 0.000000 0
M  V30 10 C -4.092400 -2.122000 0.000000 0
M  V30 11 C 3.777600 -3.579400 0.000000 0
M  V30 END ATOM
M  V30 BEGIN BOND
M  V30 1 1 2 1 CFG=3
M  V30 2 1 2 3
M  V30 3 1 2 4
M  V30 4 2 3 5
M  V30 5 1 3 6
M  V30 6 2 4 7 CFG=2
M  V30 7 1 5 8
M  V30 8 2 6 9
M  V30 9 1 7 10
M  V30 10 2 8 11
M  V30 11 1 9 11
M  V30 END BOND
M  V30 BEGIN COLLECTION
M  V30 MDLV30/STERAC1 ATOMS=(1 2)
M  V30 END COLLECTION
M  V30 END CTAB
M  END
>  <Structure No>
92

>  <Molecule Name>
Benzenemethanol, alpha-1-propen-1-yl-

>  <PubChem CID>
219674

>  <SMILES>
CC=CC(c1ccccc1)O

>  <InChIKey>
RMTAYCVXTPSMJQ-JTQLQIEISA-N

>  <Molecular Formula>
C10H12O

>  <Target Organism>
Aedes aegypti

>  <Reference DOI>
10.3390/toxics11100837

>  <Activity Label>
1

>  <Repellency>
Active

>  <IUPAC>
1-phenylbut-2-en-1-ol

>  <Common name>
Benzenemethanol, alpha-1-propen-1-yl-

$$$$
Compound 93
     RDKit          2D

 11 11  0  0  0  0  0  0  0  0999 V2000
    0.0000    0.0000    0.0000 O   0  0  0  0  0  0  0  0  0  0  0  0
    1.2421   -0.7375    0.0000 C   0  0  0  0  0  0  0  0  0  0  0  0
    2.4843    0.0905    0.0000 C   0  0  0  0  0  0  0  0  0  0  0  0
    1.1516   -2.1996    0.0000 C   0  0  0  0  0  0  0  0  0  0  0  0
    3.7265   -0.6469    0.0000 C   0  0  0  0  0  0  0  0  0  0  0  0
    2.3937    1.7338    0.0000 C   0  0  0  0  0  0  0  0  0  0  0  0
    2.3937   -2.9372    0.0000 C   0  0  0  0  0  0  0  0  0  0  0  0
    3.6359   -2.1091    0.0000 C   0  0  0  0  0  0  0  0  0  0  0  0
    3.6359    2.5619    0.0000 C   0  0  0  0  0  0  0  0  0  0  0  0
    0.9704    2.5619    0.0000 C   0  0  0  0  0  0  0  0  0  0  0  0
    2.3032   -4.3993    0.0000 C   0  0  0  0  0  0  0  0  0  0  0  0
  1  2  1  0
  2  3  2  0
  2  4  1  0
  3  5  1  0
  3  6  1  0
  4  7  2  0
  5  8  2  0
  6  9  1  0
  6 10  1  0
  7 11  1  0
  7  8  1  0
M  END
>  <Structure No>
93

>  <Molecule Name>
Thymol; thymol

>  <PubChem CID>
6989

>  <SMILES>
CC(C)c(ccc(C)c1)c1O; CC1=CC(=C(C=C1)C(C)C)O

>  <InChIKey>
MGSRCZKZVOBKFT-UHFFFAOYSA-N

>  <Molecular Formula>
C10H14O

>  <Target Organism>
Solenopsis invicta Buren); S. richteri Forel; S. invicta; S. richteri; Aedes albopictus

>  <Reference DOI>
10.3390/insects14100790; 10.1016/j.jep.2018.11.031

>  <Activity Label>
1

>  <Repellency>
Active

>  <IUPAC>
5-methyl-2-propan-2-ylphenol

>  <Common name>
Thymol; thymol

$$$$
Compound 94
     RDKit          2D

 11 11  0  0  0  0  0  0  0  0999 V2000
    0.0000    0.0000    0.0000 O   0  0  0  0  0  0  0  0  0  0  0  0
    1.2257    0.7879    0.0000 C   0  0  0  0  0  0  0  0  0  0  0  0
    2.4514    0.0625    0.0000 C   0  0  0  0  0  0  0  0  0  0  0  0
    1.1506    2.3763    0.0000 C   0  0  0  0  0  0  0  0  0  0  0  0
    3.6771    0.8629    0.0000 C   0  0  0  0  0  0  0  0  0  0  0  0
    2.3763   -1.3757    0.0000 C   0  0  0  0  0  0  0  0  0  0  0  0
    2.3763    3.1768    0.0000 C   0  0  0  0  0  0  0  0  0  0  0  0
    3.6020    2.4514    0.0000 C   0  0  0  0  0  0  0  0  0  0  0  0
    2.3013    4.7652    0.0000 C   0  0  0  0  0  0  0  0  0  0  0  0
    3.5270    5.5656    0.0000 C   0  0  0  0  0  0  0  0  0  0  0  0
    0.9255    5.5656    0.0000 C   0  0  0  0  0  0  0  0  0  0  0  0
  1  2  1  0
  2  3  2  0
  2  4  1  0
  3  5  1  0
  3  6  1  0
  4  7  2  0
  5  8  2  0
  7  9  1  0
  9 10  1  0
  9 11  1  0
  7  8  1  0
M  END
>  <Structure No>
94

>  <Molecule Name>
Carvacrol; carvacrol

>  <PubChem CID>
10364

>  <SMILES>
CC(C)c1cc(O)c(C)cc1; CC1=C(C=C(C=C1)C(C)C)O

>  <InChIKey>
RECUKUPTGUEGMW-UHFFFAOYSA-N

>  <Molecular Formula>
C10H14O

>  <Target Organism>
Solenopsis invicta Buren); S. richteri Forel; S. invicta; S. richteri; Aedes albopictus

>  <Reference DOI>
10.3390/insects14100790; 10.1016/j.jep.2018.11.031

>  <Activity Label>
1

>  <Repellency>
Active

>  <IUPAC>
2-methyl-5-propan-2-ylphenol

>  <Common name>
Carvacrol; carvacrol

$$$$
Compound 95
     RDKit          2D

 11 11  0  0  0  0  0  0  0  0999 V2000
    0.0000    0.0000    0.0000 O   0  0  0  0  0  0  0  0  0  0  0  0
    1.2736   -0.6831    0.0000 C   0  0  0  0  0  0  0  0  0  0  0  0
    1.2042   -2.1536    0.0000 C   0  0  0  0  0  0  0  0  0  0  0  0
    2.5473    0.1852    0.0000 C   0  0  0  0  0  0  0  0  0  0  0  0
   -0.2084   -2.8484    0.0000 C   0  0  0  0  0  0  0  0  0  0  0  0
   -0.2778   -4.3189    0.0000 C   0  0  0  0  0  0  0  0  0  0  0  0
   -1.6905   -5.0137    0.0000 C   0  0  0  0  0  0  0  0  0  0  0  0
    0.9957   -5.0137    0.0000 C   0  0  0  0  0  0  0  0  0  0  0  0
   -1.7600   -6.4842    0.0000 C   0  0  0  0  0  0  0  0  0  0  0  0
    0.9263   -6.4842    0.0000 C   0  0  0  0  0  0  0  0  0  0  0  0
   -0.4863   -7.1789    0.0000 C   0  0  0  0  0  0  0  0  0  0  0  0
  1  2  2  0
  2  3  1  0
  2  4  1  0
  3  5  1  0
  5  6  1  0
  6  7  2  0
  6  8  1  0
  7  9  1  0
  8 10  2  0
  9 11  2  0
 10 11  1  0
M  END
>  <Structure No>
95

>  <Molecule Name>
Benzyl acetone

>  <PubChem CID>
17355

>  <SMILES>
CC(CCc1ccccc1)=O

>  <InChIKey>
AKGGYBADQZYZPD-UHFFFAOYSA-N

>  <Molecular Formula>
C10H12O

>  <Target Organism>
Aedes albopictus

>  <Reference DOI>
10.1021/acs.jafc.2c05537

>  <Activity Label>
1

>  <Repellency>
Active

>  <IUPAC>
4-phenylbutan-2-one

>  <Common name>
Benzyl acetone

$$$$
Compound 96
     RDKit          2D

  0  0  0  0  0  0  0  0  0  0999 V3000
M  V30 BEGIN CTAB
M  V30 COUNTS 11 11 0 0 0
M  V30 BEGIN ATOM
M  V30 1 O 0.000000 0.000000 0.000000 0
M  V30 2 C -0.034500 -1.460500 0.000000 0
M  V30 3 C -1.368500 -2.150500 0.000000 0
M  V30 4 C 1.230500 -2.150500 0.000000 0
M  V30 5 C -2.702500 -1.357000 0.000000 0
M  V30 6 C -4.036600 -2.047000 0.000000 0
M  V30 7 C -5.370600 -1.242000 0.000000 0
M  V30 8 C -4.071100 -3.507600 0.000000 0
M  V30 9 C -6.704700 -1.932000 0.000000 0
M  V30 10 C -5.405100 -4.197600 0.000000 0
M  V30 11 C -6.739200 -3.392600 0.000000 0
M  V30 END ATOM
M  V30 BEGIN BOND
M  V30 1 1 2 1
M  V30 2 1 2 3
M  V30 3 1 2 4 CFG=1
M  V30 4 2 3 5 CFG=2
M  V30 5 1 5 6
M  V30 6 2 6 7
M  V30 7 1 6 8
M  V30 8 1 7 9
M  V30 9 2 8 10
M  V30 10 2 9 11
M  V30 11 1 10 11
M  V30 END BOND
M  V30 BEGIN COLLECTION
M  V30 MDLV30/STERAC1 ATOMS=(1 2)
M  V30 END COLLECTION
M  V30 END CTAB
M  END
>  <Structure No>
96

>  <Molecule Name>
4-Phenylbut-3-en-2-ol

>  <PubChem CID>
15172

>  <SMILES>
CC(C=Cc1ccccc1)O

>  <InChIKey>
ZIJWGEHOVHJHKB-VIFPVBQESA-N

>  <Molecular Formula>
C10H12O

>  <Target Organism>
Aedes aegypti

>  <Reference DOI>
10.3390/toxics11100837

>  <Activity Label>
1

>  <Repellency>
Active

>  <IUPAC>
4-phenylbut-3-en-2-ol

>  <Common name>
4-Phenylbut-3-en-2-ol

$$$$
Compound 97
     RDKit          2D

  0  0  0  0  0  0  0  0  0  0999 V3000
M  V30 BEGIN CTAB
M  V30 COUNTS 11 11 0 0 0
M  V30 BEGIN ATOM
M  V30 1 O 0.000000 0.000000 0.000000 0
M  V30 2 C 1.283800 0.760800 0.000000 0
M  V30 3 C 1.272000 -0.725100 0.000000 0
M  V30 4 C 2.567700 1.521600 0.000000 0
M  V30 5 C -0.023700 1.521600 0.000000 0
M  V30 6 C 2.555900 -1.462200 0.000000 0
M  V30 7 C -0.035600 -1.462200 0.000000 0
M  V30 8 C 2.555900 3.031400 0.000000 0
M  V30 9 C -0.035600 3.031400 0.000000 0
M  V30 10 C 1.248200 3.792200 0.000000 0
M  V30 11 C 1.236300 5.302000 0.000000 0
M  V30 END ATOM
M  V30 BEGIN BOND
M  V30 1 1 2 1 CFG=1
M  V30 2 1 2 3
M  V30 3 1 2 4
M  V30 4 1 2 5
M  V30 5 1 3 6
M  V30 6 1 3 7
M  V30 7 1 4 8
M  V30 8 1 5 9
M  V30 9 2 8 10
M  V30 10 1 10 11
M  V30 11 1 9 10
M  V30 END BOND
M  V30 BEGIN COLLECTION
M  V30 MDLV30/STERAC1 ATOMS=(1 2)
M  V30 END COLLECTION
M  V30 END CTAB
M  END
>  <Structure No>
97

>  <Molecule Name>
Compound_20

>  <PubChem CID>
11230

>  <SMILES>
CC(C)C1(CC=C(C)CC1)O

>  <InChIKey>
WRYLYDPHFGVWKC-SNVBAGLBSA-N

>  <Molecular Formula>
C10H18O

>  <Target Organism>
Haemaphysalis longicornis

>  <Reference DOI>
10.1016/j.aspen.2024.102300

>  <Activity Label>
1

>  <Repellency>
Active

>  <IUPAC>
4-methyl-1-propan-2-ylcyclohex-3-en-1-ol

>  <Common name>
Compound_20

$$$$
Compound 98
     RDKit          2D

 11 11  0  0  0  0  0  0  0  0999 V2000
    0.0000    0.0000    0.0000 O   0  0  0  0  0  0  0  0  0  0  0  0
   -0.0363    1.5400    0.0000 C   0  0  0  0  0  0  0  0  0  0  0  0
   -1.3703    2.3040    0.0000 O   0  0  0  0  0  0  0  0  0  0  0  0
    1.2247    2.3040    0.0000 C   0  0  0  0  0  0  0  0  0  0  0  0
   -2.7042    1.5643    0.0000 C   0  0  0  0  0  0  0  0  0  0  0  0
    2.4859    1.5764    0.0000 C   0  0  0  0  0  0  0  0  0  0  0  0
    1.1884    3.8441    0.0000 C   0  0  0  0  0  0  0  0  0  0  0  0
    2.4495    0.1091    0.0000 N   0  0  0  0  0  0  0  0  0  0  0  0
    3.7471    2.3525    0.0000 C   0  0  0  0  0  0  0  0  0  0  0  0
    2.4495    4.6202    0.0000 C   0  0  0  0  0  0  0  0  0  0  0  0
    3.7107    3.8926    0.0000 C   0  0  0  0  0  0  0  0  0  0  0  0
  1  2  2  0
  2  3  1  0
  2  4  1  0
  3  5  1  0
  4  6  2  0
  4  7  1  0
  6  8  1  0
  6  9  1  0
  7 10  2  0
  9 11  2  0
 10 11  1  0
M  END
>  <Structure No>
98

>  <Molecule Name>
Methyl Anthranilate

>  <PubChem CID>
8635

>  <SMILES>
COC(c(cccc1)c1N)=O

>  <InChIKey>
VAMXMNNIEUEQDV-UHFFFAOYSA-N

>  <Molecular Formula>
C8H9NO2

>  <Target Organism>
Aedes aegypti

>  <Reference DOI>
10.3390/toxics11100837

>  <Activity Label>
1

>  <Repellency>
Active

>  <IUPAC>
methyl 2-aminobenzoate

>  <Common name>
Methyl Anthranilate

$$$$
Compound 99
     RDKit          2D

 11 11  0  0  0  0  0  0  0  0999 V2000
    0.0000    0.0000    0.0000 O   0  0  0  0  0  0  0  0  0  0  0  0
    1.2881    0.8080    0.0000 C   0  0  0  0  0  0  0  0  0  0  0  0
    2.5763    0.0819    0.0000 N   0  0  0  0  0  0  0  0  0  0  0  0
    2.5411   -1.4052    0.0000 C   0  0  0  0  0  0  0  0  0  0  0  0
    3.8644    0.8899    0.0000 C   0  0  0  0  0  0  0  0  0  0  0  0
    1.1827   -2.1078    0.0000 C   0  0  0  0  0  0  0  0  0  0  0  0
    3.8293   -2.1195    0.0000 C   0  0  0  0  0  0  0  0  0  0  0  0
    5.1526    0.1639    0.0000 C   0  0  0  0  0  0  0  0  0  0  0  0
    1.1476   -3.5951    0.0000 C   0  0  0  0  0  0  0  0  0  0  0  0
    3.7941   -3.6068    0.0000 C   0  0  0  0  0  0  0  0  0  0  0  0
    2.4357   -4.3445    0.0000 C   0  0  0  0  0  0  0  0  0  0  0  0
  1  2  2  0
  2  3  1  0
  3  4  1  0
  3  5  1  0
  4  6  2  0
  4  7  1  0
  5  8  1  0
  6  9  1  0
  7 10  2  0
  9 11  2  0
 10 11  1  0
M  END
>  <Structure No>
99

>  <Molecule Name>
Formamide, N-ethyl-N-phenyl-

>  <PubChem CID>
79585

>  <SMILES>
CCN(C=O)c1ccccc1

>  <InChIKey>
GBDYFPAHVXJQEP-UHFFFAOYSA-N

>  <Molecular Formula>
C9H11NO

>  <Target Organism>
Aedes aegypti

>  <Reference DOI>
10.3390/toxics11100837

>  <Activity Label>
1

>  <Repellency>
Active

>  <IUPAC>
N-ethyl-N-phenylformamide

>  <Common name>
Formamide, N-ethyl-N-phenyl-

$$$$
Compound 100
     RDKit          2D

 11 11  0  0  0  0  0  0  0  0999 V2000
    0.0000    0.0000    0.0000 O   0  0  0  0  0  0  0  0  0  0  0  0
    1.2692    0.7688    0.0000 N   0  0  0  0  0  0  0  0  0  0  0  0
    2.5384    0.0244    0.0000 C   0  0  0  0  0  0  0  0  0  0  0  0
    3.8076    0.8054    0.0000 C   0  0  0  0  0  0  0  0  0  0  0  0
    5.0768    0.0610    0.0000 C   0  0  0  0  0  0  0  0  0  0  0  0
    3.7710    2.3553    0.0000 C   0  0  0  0  0  0  0  0  0  0  0  0
    6.3460    0.8420    0.0000 C   0  0  0  0  0  0  0  0  0  0  0  0
    5.0402   -1.4156    0.0000 C   0  0  0  0  0  0  0  0  0  0  0  0
    5.0402    3.1364    0.0000 C   0  0  0  0  0  0  0  0  0  0  0  0
    2.4285    3.1364    0.0000 C   0  0  0  0  0  0  0  0  0  0  0  0
    6.3094    2.3919    0.0000 C   0  0  0  0  0  0  0  0  0  0  0  0
  1  2  1  0
  2  3  2  3
  3  4  1  0
  4  5  1  0
  4  6  1  0
  5  7  1  0
  5  8  1  0
  6  9  1  0
  6 10  1  0
  7 11  2  0
  9 11  1  0
M  END
>  <Structure No>
100

>  <Molecule Name>
2,6-Dimethyl-1,2,3,6-tetrahydrobenzaldehyde oxime

>  <PubChem CID>
Not found

>  <SMILES>
CC(CC=CC1C)C1C=NO

>  <InChIKey>
HQAUTQPJWYGXDO-UHFFFAOYSA-N

>  <Molecular Formula>
C9H15NO

>  <Target Organism>
Aedes aegypti

>  <Reference DOI>
10.3390/toxics11100837

>  <Activity Label>
1

>  <Repellency>
Active

>  <IUPAC>


>  <Common name>
2,6-Dimethyl-1,2,3,6-tetrahydrobenzaldehyde oxime

$$$$
Compound 101
     RDKit          2D

  0  0  0  0  0  0  0  0  0  0999 V3000
M  V30 BEGIN CTAB
M  V30 COUNTS 11 11 0 0 0
M  V30 BEGIN ATOM
M  V30 1 O 0.000000 0.000000 0.000000 0
M  V30 2 N 1.258300 0.762200 0.000000 0
M  V30 3 C 2.516600 0.036200 0.000000 0
M  V30 4 C 3.775000 0.810600 0.000000 0
M  V30 5 C 3.738700 2.347200 0.000000 0
M  V30 6 C 5.033300 0.084600 0.000000 0
M  V30 7 C 4.997000 3.121600 0.000000 0
M  V30 8 C 2.407700 3.121600 0.000000 0
M  V30 9 C 4.960700 4.658200 0.000000 0
M  V30 10 C 2.371400 4.658200 0.000000 0
M  V30 11 C 3.629800 5.432600 0.000000 0
M  V30 END ATOM
M  V30 BEGIN BOND
M  V30 1 1 1 2
M  V30 2 2 2 3 CFG=2
M  V30 3 1 3 4
M  V30 4 1 4 5
M  V30 5 1 4 6 CFG=1
M  V30 6 2 5 7
M  V30 7 1 5 8
M  V30 8 1 7 9
M  V30 9 2 8 10
M  V30 10 2 9 11
M  V30 11 1 10 11
M  V30 END BOND
M  V30 BEGIN COLLECTION
M  V30 MDLV30/STERAC1 ATOMS=(1 4)
M  V30 END COLLECTION
M  V30 END CTAB
M  END
>  <Structure No>
101

>  <Molecule Name>
N-(2-phenylpropylidene)hydroxylamine

>  <PubChem CID>
98005

>  <SMILES>
CC(C=NO)c1ccccc1

>  <InChIKey>
SETWHVMVMWYJQA-QMMMGPOBSA-N

>  <Molecular Formula>
C9H11NO

>  <Target Organism>
Aedes aegypti

>  <Reference DOI>
10.3390/toxics11100837

>  <Activity Label>
1

>  <Repellency>
Active

>  <IUPAC>
N-(2-phenylpropylidene)hydroxylamine

>  <Common name>
N-(2-phenylpropylidene)hydroxylamine

$$$$
Compound 102
     RDKit          2D

  0  0  0  0  0  0  0  0  0  0999 V3000
M  V30 BEGIN CTAB
M  V30 COUNTS 11 11 0 0 0
M  V30 BEGIN ATOM
M  V30 1 O 0.000000 0.000000 0.000000 0
M  V30 2 N 1.275000 0.772400 0.000000 0
M  V30 3 C 2.550100 0.024500 0.000000 0
M  V30 4 C 3.825200 0.809100 0.000000 0
M  V30 5 C 2.513300 -1.458900 0.000000 0
M  V30 6 C 5.100300 0.061300 0.000000 0
M  V30 7 C 3.788400 2.366200 0.000000 0
M  V30 8 C 3.788400 -2.206800 0.000000 0
M  V30 9 C 5.063500 -1.422200 0.000000 0
M  V30 10 C 5.063500 3.150900 0.000000 0
M  V30 11 C 5.026700 4.708000 0.000000 0
M  V30 END ATOM
M  V30 BEGIN BOND
M  V30 1 1 1 2
M  V30 2 2 2 3
M  V30 3 1 3 4
M  V30 4 1 3 5
M  V30 5 1 4 6
M  V30 6 1 4 7 CFG=1
M  V30 7 1 5 8
M  V30 8 1 6 9
M  V30 9 1 7 10
M  V30 10 2 10 11
M  V30 11 1 8 9
M  V30 END BOND
M  V30 BEGIN COLLECTION
M  V30 MDLV30/STERAC1 ATOMS=(1 4)
M  V30 END COLLECTION
M  V30 END CTAB
M  END
>  <Structure No>
102

>  <Molecule Name>
NZ)-N-(2-prop-2-enylcyclohexylidene)hydroxylamine

>  <PubChem CID>
12255463

>  <SMILES>
C=CCC(CCCC1)/C\1=N/O

>  <InChIKey>
PUHSIAHHRSCCQR-MDZDMXLPSA-N

>  <Molecular Formula>
C9H15NO

>  <Target Organism>
Aedes aegypti

>  <Reference DOI>
10.1371/annotation/1dc83f26-8045-4b63-8a86-24c7b71a7f79

>  <Activity Label>
1

>  <Repellency>
Active

>  <IUPAC>


>  <Common name>
NZ)-N-(2-prop-2-enylcyclohexylidene)hydroxylamine

$$$$
Compound 103
     RDKit          2D

 12 12  0  0  0  0  0  0  0  0999 V2000
    0.0000    0.0000    0.0000 O   0  0  0  0  0  0  0  0  0  0  0  0
   -0.0366    1.5535    0.0000 C   0  0  0  0  0  0  0  0  0  0  0  0
    1.2355    2.3364    0.0000 C   0  0  0  0  0  0  0  0  0  0  0  0
    1.1988    3.8900    0.0000 C   0  0  0  0  0  0  0  0  0  0  0  0
    2.5077    1.6025    0.0000 C   0  0  0  0  0  0  0  0  0  0  0  0
    2.4710    4.6729    0.0000 C   0  0  0  0  0  0  0  0  0  0  0  0
    3.7799    2.3854    0.0000 C   0  0  0  0  0  0  0  0  0  0  0  0
    3.7432    3.9267    0.0000 C   0  0  0  0  0  0  0  0  0  0  0  0
    5.0154    4.7096    0.0000 O   0  0  0  0  0  0  0  0  0  0  0  0
    6.2876    3.9756    0.0000 C   0  0  0  0  0  0  0  0  0  0  0  0
    7.5598    4.7585    0.0000 C   0  0  0  0  0  0  0  0  0  0  0  0
    8.8321    4.0246    0.0000 C   0  0  0  0  0  0  0  0  0  0  0  0
  1  2  2  0
  2  3  1  0
  3  4  2  0
  3  5  1  0
  4  6  1  0
  5  7  2  0
  6  8  2  0
  8  9  1  0
  9 10  1  0
 10 11  1  0
 11 12  1  0
  7  8  1  0
M  END
>  <Structure No>
103

>  <Molecule Name>
4-Propoxybenzaldehyde

>  <PubChem CID>
79812

>  <SMILES>
CCCOc1ccc(C=O)cc1

>  <InChIKey>
FGXZWMCBNMMYPL-UHFFFAOYSA-N

>  <Molecular Formula>
C10H12O2

>  <Target Organism>
Aedes aegypti

>  <Reference DOI>
10.3390/toxics11100837

>  <Activity Label>
1

>  <Repellency>
Active

>  <IUPAC>
4-propoxybenzaldehyde

>  <Common name>
4-Propoxybenzaldehyde

$$$$
Compound 104
     RDKit          2D

 12 12  0  0  0  0  0  0  0  0999 V2000
    0.0000    0.0000    0.0000 O   0  0  0  0  0  0  0  0  0  0  0  0
   -0.0366    1.5525    0.0000 C   0  0  0  0  0  0  0  0  0  0  0  0
    1.2347    2.3349    0.0000 C   0  0  0  0  0  0  0  0  0  0  0  0
    1.1980    3.8874    0.0000 C   0  0  0  0  0  0  0  0  0  0  0  0
    2.5060    1.6014    0.0000 C   0  0  0  0  0  0  0  0  0  0  0  0
    2.4694    4.6698    0.0000 C   0  0  0  0  0  0  0  0  0  0  0  0
    3.7774    2.3838    0.0000 C   0  0  0  0  0  0  0  0  0  0  0  0
    3.7407    3.9241    0.0000 C   0  0  0  0  0  0  0  0  0  0  0  0
    5.0121    4.7065    0.0000 O   0  0  0  0  0  0  0  0  0  0  0  0
    6.2835    3.9730    0.0000 C   0  0  0  0  0  0  0  0  0  0  0  0
    7.5549    4.7554    0.0000 C   0  0  0  0  0  0  0  0  0  0  0  0
    6.2468    2.4938    0.0000 C   0  0  0  0  0  0  0  0  0  0  0  0
  1  2  2  0
  2  3  1  0
  3  4  2  0
  3  5  1  0
  4  6  1  0
  5  7  2  0
  6  8  2  0
  8  9  1  0
  9 10  1  0
 10 11  1  0
 10 12  1  0
  7  8  1  0
M  END
>  <Structure No>
104

>  <Molecule Name>
p-iso-Propoxybenzaldehyde

>  <PubChem CID>
250077

>  <SMILES>
CC(C)Oc1ccc(C=O)cc1

>  <InChIKey>
WDANSDASCKBVKH-UHFFFAOYSA-N

>  <Molecular Formula>
C10H12O2

>  <Target Organism>
Aedes aegypti

>  <Reference DOI>
10.3390/toxics11100837

>  <Activity Label>
1

>  <Repellency>
Active

>  <IUPAC>
4-propan-2-yloxybenzaldehyde

>  <Common name>
p-iso-Propoxybenzaldehyde

$$$$
Compound 105
     RDKit          2D

 12 12  0  0  0  0  0  0  0  0999 V2000
    0.0000    0.0000    0.0000 O   0  0  0  0  0  0  0  0  0  0  0  0
   -0.0365    1.5465    0.0000 C   0  0  0  0  0  0  0  0  0  0  0  0
    1.2299    2.3259    0.0000 C   0  0  0  0  0  0  0  0  0  0  0  0
   -1.3760    2.3259    0.0000 C   0  0  0  0  0  0  0  0  0  0  0  0
    1.1934    3.8724    0.0000 C   0  0  0  0  0  0  0  0  0  0  0  0
    2.4964    1.5952    0.0000 C   0  0  0  0  0  0  0  0  0  0  0  0
    2.4598    4.6518    0.0000 C   0  0  0  0  0  0  0  0  0  0  0  0
    3.7628    2.3746    0.0000 C   0  0  0  0  0  0  0  0  0  0  0  0
    3.7263    3.9090    0.0000 C   0  0  0  0  0  0  0  0  0  0  0  0
    4.9928    4.6761    0.0000 O   0  0  0  0  0  0  0  0  0  0  0  0
    6.2592    3.9455    0.0000 C   0  0  0  0  0  0  0  0  0  0  0  0
    7.5257    4.7249    0.0000 C   0  0  0  0  0  0  0  0  0  0  0  0
  1  2  2  0
  2  3  1  0
  2  4  1  0
  3  5  2  0
  3  6  1  0
  5  7  1  0
  6  8  2  0
  7  9  2  0
  9 10  1  0
 10 11  1  0
 11 12  1  0
  8  9  1  0
M  END
>  <Structure No>
105

>  <Molecule Name>
p-Ethoxyacetophenone

>  <PubChem CID>
72872

>  <SMILES>
CCOc(cc1)ccc1C(C)=O

>  <InChIKey>
YJFNFQHMQJCPRG-UHFFFAOYSA-N

>  <Molecular Formula>
C10H12O2

>  <Target Organism>
Aedes aegypti

>  <Reference DOI>
10.3390/toxics11100837

>  <Activity Label>
1

>  <Repellency>
Active

>  <IUPAC>
1-(4-ethoxyphenyl)ethanone

>  <Common name>
p-Ethoxyacetophenone

$$$$
Compound 106
     RDKit          2D

 12 12  0  0  0  0  0  0  0  0999 V2000
    0.0000    0.0000    0.0000 O   0  0  0  0  0  0  0  0  0  0  0  0
   -0.0809   -1.4687    0.0000 C   0  0  0  0  0  0  0  0  0  0  0  0
    1.2721    0.8789    0.0000 C   0  0  0  0  0  0  0  0  0  0  0  0
   -1.5150   -2.1279    0.0000 C   0  0  0  0  0  0  0  0  0  0  0  0
    1.1911   -2.1279    0.0000 C   0  0  0  0  0  0  0  0  0  0  0  0
   -2.9490   -1.2490    0.0000 O   0  0  0  0  0  0  0  0  0  0  0  0
   -1.5959   -3.5967    0.0000 C   0  0  0  0  0  0  0  0  0  0  0  0
    1.1102   -3.5967    0.0000 C   0  0  0  0  0  0  0  0  0  0  0  0
   -0.3238   -4.2559    0.0000 C   0  0  0  0  0  0  0  0  0  0  0  0
    2.3823   -4.2559    0.0000 C   0  0  0  0  0  0  0  0  0  0  0  0
    2.3014   -5.7246    0.0000 C   0  0  0  0  0  0  0  0  0  0  0  0
    3.5735   -6.3838    0.0000 C   0  0  0  0  0  0  0  0  0  0  0  0
  1  2  1  0
  1  3  1  0
  2  4  2  0
  2  5  1  0
  4  6  1  0
  4  7  1  0
  5  8  2  0
  7  9  2  0
  8 10  1  0
 10 11  1  0
 11 12  2  0
  8  9  1  0
M  END
>  <Structure No>
106

>  <Molecule Name>
Eugenol

>  <PubChem CID>
3314

>  <SMILES>
COc(cc(CC=C)cc1)c1O

>  <InChIKey>
RRAFCDWBNXTKKO-UHFFFAOYSA-N

>  <Molecular Formula>
C10H12O2

>  <Target Organism>
Anopheles stephensi: Aedes aegypti

>  <Reference DOI>
10.1016/j.cub.2019.09.007

>  <Activity Label>
1

>  <Repellency>
Active

>  <IUPAC>
2-methoxy-4-prop-2-enylphenol

>  <Common name>
Eugenol

$$$$
Compound 107
     RDKit          2D

 12 12  0  0  0  0  0  0  0  0999 V2000
    0.0000    0.0000    0.0000 O   0  0  0  0  0  0  0  0  0  0  0  0
   -0.0464   -1.4749    0.0000 C   0  0  0  0  0  0  0  0  0  0  0  0
    1.2774    0.8245    0.0000 C   0  0  0  0  0  0  0  0  0  0  0  0
   -1.4168   -2.1717    0.0000 C   0  0  0  0  0  0  0  0  0  0  0  0
    1.2310   -2.1717    0.0000 C   0  0  0  0  0  0  0  0  0  0  0  0
   -2.7872   -1.3471    0.0000 O   0  0  0  0  0  0  0  0  0  0  0  0
   -1.4632   -3.6466    0.0000 C   0  0  0  0  0  0  0  0  0  0  0  0
    1.1845   -3.6466    0.0000 C   0  0  0  0  0  0  0  0  0  0  0  0
   -4.1576   -2.0439    0.0000 C   0  0  0  0  0  0  0  0  0  0  0  0
   -0.1858   -4.3434    0.0000 C   0  0  0  0  0  0  0  0  0  0  0  0
    2.4620   -4.3434    0.0000 C   0  0  0  0  0  0  0  0  0  0  0  0
    2.4156   -5.8183    0.0000 C   0  0  0  0  0  0  0  0  0  0  0  0
  1  2  1  0
  1  3  1  0
  2  4  2  0
  2  5  1  0
  4  6  1  0
  4  7  1  0
  5  8  2  0
  6  9  1  0
  7 10  2  0
  8 11  1  0
 11 12  2  0
  8 10  1  0
M  END
>  <Structure No>
107

>  <Molecule Name>
3,4-Dimethoxystyrene

>  <PubChem CID>
61400

>  <SMILES>
COc(ccc(C=C)c1)c1OC

>  <InChIKey>
NJXYTXADXSRFTJ-UHFFFAOYSA-N

>  <Molecular Formula>
C10H12O2

>  <Target Organism>
Glossina morsitans morsitans

>  <Reference DOI>
10.1007/s10886-007-9272-7

>  <Activity Label>
1

>  <Repellency>
Active

>  <IUPAC>
4-ethenyl-1,2-dimethoxybenzene

>  <Common name>
3,4-Dimethoxystyrene

$$$$
Compound 108
     RDKit          2D

 12 12  0  0  0  0  0  0  0  0999 V2000
    0.0000    0.0000    0.0000 O   0  0  0  0  0  0  0  0  0  0  0  0
   -1.3310   -0.6884    0.0000 C   0  0  0  0  0  0  0  0  0  0  0  0
    1.2622   -0.6884    0.0000 C   0  0  0  0  0  0  0  0  0  0  0  0
   -2.6621    0.1147    0.0000 C   0  0  0  0  0  0  0  0  0  0  0  0
   -1.3654   -2.1457    0.0000 C   0  0  0  0  0  0  0  0  0  0  0  0
    2.5244    0.1032    0.0000 C   0  0  0  0  0  0  0  0  0  0  0  0
   -3.9932   -0.5737    0.0000 C   0  0  0  0  0  0  0  0  0  0  0  0
   -2.6965   -2.8342    0.0000 C   0  0  0  0  0  0  0  0  0  0  0  0
   -4.0276   -2.0310    0.0000 C   0  0  0  0  0  0  0  0  0  0  0  0
   -5.3586   -2.7195    0.0000 C   0  0  0  0  0  0  0  0  0  0  0  0
   -6.6897   -1.9162    0.0000 C   0  0  0  0  0  0  0  0  0  0  0  0
   -8.0208   -2.6047    0.0000 O   0  0  0  0  0  0  0  0  0  0  0  0
  1  2  1  0
  1  3  1  0
  2  4  2  0
  2  5  1  0
  3  6  1  0
  4  7  1  0
  5  8  2  0
  7  9  2  0
  9 10  1  0
 10 11  1  0
 11 12  1  0
  8  9  1  0
M  END
>  <Structure No>
108

>  <Molecule Name>
2-(4-Ethoxyphenyl)ethanol

>  <PubChem CID>
89752

>  <SMILES>
CCOc1ccc(CCO)cc1

>  <InChIKey>
CNMVSNTVPZWQMI-UHFFFAOYSA-N

>  <Molecular Formula>
C10H14O2

>  <Target Organism>
Aedes aegypti

>  <Reference DOI>
10.3390/toxics11100837

>  <Activity Label>
1

>  <Repellency>
Active

>  <IUPAC>
2-(4-ethoxyphenyl)ethanol

>  <Common name>
2-(4-Ethoxyphenyl)ethanol

$$$$
Compound 109
     RDKit          2D

 12 12  0  0  0  0  0  0  0  0999 V2000
    0.0000    0.0000    0.0000 O   0  0  0  0  0  0  0  0  0  0  0  0
   -1.3107    0.7506    0.0000 C   0  0  0  0  0  0  0  0  0  0  0  0
   -0.0357   -1.4418    0.0000 C   0  0  0  0  0  0  0  0  0  0  0  0
   -1.3464    2.2639    0.0000 C   0  0  0  0  0  0  0  0  0  0  0  0
   -2.6214    0.0357    0.0000 C   0  0  0  0  0  0  0  0  0  0  0  0
   -2.6572    3.0146    0.0000 C   0  0  0  0  0  0  0  0  0  0  0  0
   -3.9321    0.7864    0.0000 C   0  0  0  0  0  0  0  0  0  0  0  0
   -3.9679    2.2878    0.0000 C   0  0  0  0  0  0  0  0  0  0  0  0
   -5.2786    3.0504    0.0000 C   0  0  0  0  0  0  0  0  0  0  0  0
   -6.5894    2.3354    0.0000 C   0  0  0  0  0  0  0  0  0  0  0  0
   -7.9001    3.0980    0.0000 C   0  0  0  0  0  0  0  0  0  0  0  0
   -9.2108    2.3831    0.0000 O   0  0  0  0  0  0  0  0  0  0  0  0
  1  2  1  0
  1  3  1  0
  2  4  2  0
  2  5  1  0
  4  6  1  0
  5  7  2  0
  6  8  2  0
  8  9  1  0
  9 10  1  0
 10 11  1  0
 11 12  1  0
  7  8  1  0
M  END
>  <Structure No>
109

>  <Molecule Name>
3-(4-Methoxyphenyl)-1-propanol

>  <PubChem CID>
79406

>  <SMILES>
COc1ccc(CCCO)cc1

>  <InChIKey>
NIIDHUCLROLCBU-UHFFFAOYSA-N

>  <Molecular Formula>
C10H14O2

>  <Target Organism>
Aedes aegypti

>  <Reference DOI>
10.3390/toxics11100837

>  <Activity Label>
1

>  <Repellency>
Active

>  <IUPAC>
3-(4-methoxyphenyl)propan-1-ol

>  <Common name>
3-(4-Methoxyphenyl)-1-propanol

$$$$
Compound 110
     RDKit          2D

 12 12  0  0  0  0  0  0  0  0999 V2000
    0.0000    0.0000    0.0000 O   0  0  0  0  0  0  0  0  0  0  0  0
   -1.3415   -0.6939    0.0000 C   0  0  0  0  0  0  0  0  0  0  0  0
    1.2721   -0.6939    0.0000 C   0  0  0  0  0  0  0  0  0  0  0  0
   -2.6831    0.1156    0.0000 C   0  0  0  0  0  0  0  0  0  0  0  0
   -1.3762   -2.1627    0.0000 C   0  0  0  0  0  0  0  0  0  0  0  0
    2.5443    0.1040    0.0000 C   0  0  0  0  0  0  0  0  0  0  0  0
   -4.0247   -0.5782    0.0000 C   0  0  0  0  0  0  0  0  0  0  0  0
   -2.7178   -2.8682    0.0000 C   0  0  0  0  0  0  0  0  0  0  0  0
    3.8165   -0.5898    0.0000 C   0  0  0  0  0  0  0  0  0  0  0  0
   -4.0594   -2.0470    0.0000 C   0  0  0  0  0  0  0  0  0  0  0  0
   -5.4010   -2.7525    0.0000 C   0  0  0  0  0  0  0  0  0  0  0  0
   -5.4357   -4.2213    0.0000 O   0  0  0  0  0  0  0  0  0  0  0  0
  1  2  1  0
  1  3  1  0
  2  4  2  0
  2  5  1  0
  3  6  1  0
  4  7  1  0
  5  8  2  0
  6  9  1  0
  7 10  2  0
 10 11  1  0
 11 12  1  0
  8 10  1  0
M  END
>  <Structure No>
110

>  <Molecule Name>
(4-Propoxyphenyl)methanol

>  <PubChem CID>
347843

>  <SMILES>
CCCOc1ccc(CO)cc1

>  <InChIKey>
BUJZENMUXBWWFE-UHFFFAOYSA-N

>  <Molecular Formula>
C10H14O2

>  <Target Organism>
Aedes aegypti

>  <Reference DOI>
10.3390/toxics11100837

>  <Activity Label>
1

>  <Repellency>
Active

>  <IUPAC>
(4-propoxyphenyl)methanol

>  <Common name>
(4-Propoxyphenyl)methanol

$$$$
Compound 111
     RDKit          2D

 12 12  0  0  0  0  0  0  0  0999 V2000
    0.0000    0.0000    0.0000 O   0  0  0  0  0  0  0  0  0  0  0  0
    0.6855   -1.1680    0.0000 C   0  0  0  0  0  0  0  0  0  0  0  0
   -0.7109   -1.8536    0.0000 C   0  0  0  0  0  0  0  0  0  0  0  0
    1.8536   -0.3427    0.0000 C   0  0  0  0  0  0  0  0  0  0  0  0
    1.3711   -2.3360    0.0000 C   0  0  0  0  0  0  0  0  0  0  0  0
   -2.1075   -1.0283    0.0000 C   0  0  0  0  0  0  0  0  0  0  0  0
   -0.8252   -3.2375    0.0000 C   0  0  0  0  0  0  0  0  0  0  0  0
   -2.2218    0.5840    0.0000 O   0  0  0  0  0  0  0  0  0  0  0  0
   -3.5041   -1.7139    0.0000 C   0  0  0  0  0  0  0  0  0  0  0  0
   -2.2218   -3.9230    0.0000 C   0  0  0  0  0  0  0  0  0  0  0  0
   -3.6183   -3.0978    0.0000 C   0  0  0  0  0  0  0  0  0  0  0  0
   -5.0149   -3.7834    0.0000 C   0  0  0  0  0  0  0  0  0  0  0  0
  1  2  1  0
  2  3  1  0
  2  4  1  0
  2  5  1  0
  3  6  1  0
  3  7  1  0
  6  8  1  0
  6  9  1  0
  7 10  1  0
  9 11  1  0
 11 12  1  0
 10 11  1  0
M  END
>  <Structure No>
111

>  <Molecule Name>
P-Menthane-3,8-diol

>  <PubChem CID>
556998

>  <SMILES>
CC(CCC1C(C)(C)O)CC1O

>  <InChIKey>
LMXFTMYMHGYJEI-UHFFFAOYSA-N

>  <Molecular Formula>
C10H20O2

>  <Target Organism>
Anopheles gambiae

>  <Reference DOI>
10.1603/0022-2585-39.5.736

>  <Activity Label>
1

>  <Repellency>
Active

>  <IUPAC>
2-(2-hydroxypropan-2-yl)-5-methylcyclohexan-1-ol

>  <Common name>
P-Menthane-3,8-diol

$$$$
Compound 112
     RDKit          2D

 12 12  0  0  0  0  0  0  0  0999 V2000
    0.0000    0.0000    0.0000 O   0  0  0  0  0  0  0  0  0  0  0  0
    1.2774    0.7738    0.0000 C   0  0  0  0  0  0  0  0  0  0  0  0
    2.5548    0.0245    0.0000 C   0  0  0  0  0  0  0  0  0  0  0  0
    3.8322    0.8106    0.0000 C   0  0  0  0  0  0  0  0  0  0  0  0
    3.7953    2.3705    0.0000 C   0  0  0  0  0  0  0  0  0  0  0  0
    5.1096    0.0736    0.0000 C   0  0  0  0  0  0  0  0  0  0  0  0
    5.0727    3.1443    0.0000 C   0  0  0  0  0  0  0  0  0  0  0  0
    6.3870    0.8475    0.0000 C   0  0  0  0  0  0  0  0  0  0  0  0
    6.3501    2.3951    0.0000 C   0  0  0  0  0  0  0  0  0  0  0  0
    7.6275    3.1812    0.0000 C   0  0  0  0  0  0  0  0  0  0  0  0
    8.9050    2.4442    0.0000 C   0  0  0  0  0  0  0  0  0  0  0  0
   10.1824    3.2303    0.0000 C   0  0  0  0  0  0  0  0  0  0  0  0
  1  2  1  0
  2  3  1  0
  3  4  1  0
  4  5  2  0
  4  6  1  0
  5  7  1  0
  6  8  2  0
  7  9  2  0
  9 10  1  0
 10 11  1  0
 11 12  1  0
  8  9  1  0
M  END
>  <Structure No>
112

>  <Molecule Name>
2-(4-Propylphenyl)ethanol

>  <PubChem CID>
2760476

>  <SMILES>
CCCc1ccc(CCO)cc1

>  <InChIKey>
COXVVRAGVZOPFK-UHFFFAOYSA-N

>  <Molecular Formula>
C11H16O

>  <Target Organism>
Aedes aegypti

>  <Reference DOI>
10.3390/toxics11100837

>  <Activity Label>
1

>  <Repellency>
Active

>  <IUPAC>
2-(4-propylphenyl)ethanol

>  <Common name>
2-(4-Propylphenyl)ethanol

$$$$
Compound 113
     RDKit          2D

  0  0  0  0  0  0  0  0  0  0999 V3000
M  V30 BEGIN CTAB
M  V30 COUNTS 12 12 0 0 0
M  V30 BEGIN ATOM
M  V30 1 O 0.000000 0.000000 0.000000 0
M  V30 2 C -0.036500 -1.475100 0.000000 0
M  V30 3 C 1.231300 -2.218800 0.000000 0
M  V30 4 C -1.377600 -2.218800 0.000000 0
M  V30 5 C 1.194700 -3.693900 0.000000 0
M  V30 6 C 2.499200 -1.426300 0.000000 0
M  V30 7 C -2.718600 -1.426300 0.000000 0
M  V30 8 C 2.462600 -4.437600 0.000000 0
M  V30 9 C 3.767000 -2.170000 0.000000 0
M  V30 10 C -2.755200 0.121900 0.000000 0
M  V30 11 C -4.059600 -2.170000 0.000000 0
M  V30 12 C 3.730500 -3.645100 0.000000 0
M  V30 END ATOM
M  V30 BEGIN BOND
M  V30 1 1 2 1 CFG=3
M  V30 2 1 2 3
M  V30 3 1 2 4
M  V30 4 2 3 5
M  V30 5 1 3 6
M  V30 6 1 4 7
M  V30 7 1 5 8
M  V30 8 2 6 9
M  V30 9 1 7 10
M  V30 10 1 7 11
M  V30 11 2 8 12
M  V30 12 1 9 12
M  V30 END BOND
M  V30 BEGIN COLLECTION
M  V30 MDLV30/STERAC1 ATOMS=(1 2)
M  V30 END COLLECTION
M  V30 END CTAB
M  END
>  <Structure No>
113

>  <Molecule Name>
alpha-(2-Methylpropyl)benzenemethanol

>  <PubChem CID>
12487504

>  <SMILES>
CC(C)CC(c1ccccc1)O

>  <InChIKey>
KWXSTAUVUZAMGW-NSHDSACASA-N

>  <Molecular Formula>
C11H16O

>  <Target Organism>
Aedes aegypti

>  <Reference DOI>
10.3390/toxics11100837

>  <Activity Label>
1

>  <Repellency>
Active

>  <IUPAC>
3-methyl-1-phenylbutan-1-ol

>  <Common name>
alpha-(2-Methylpropyl)benzenemethanol

$$$$
Compound 114
     RDKit          2D

 12 12  0  0  0  0  0  0  0  0999 V2000
    0.0000    0.0000    0.0000 O   0  0  0  0  0  0  0  0  0  0  0  0
    1.2722    0.7706    0.0000 C   0  0  0  0  0  0  0  0  0  0  0  0
    2.5444    0.0366    0.0000 C   0  0  0  0  0  0  0  0  0  0  0  0
    1.2355    2.3242    0.0000 C   0  0  0  0  0  0  0  0  0  0  0  0
    3.8167    0.8196    0.0000 C   0  0  0  0  0  0  0  0  0  0  0  0
    5.0889    0.0856    0.0000 C   0  0  0  0  0  0  0  0  0  0  0  0
    6.3611    0.8685    0.0000 C   0  0  0  0  0  0  0  0  0  0  0  0
    7.6334    0.1345    0.0000 C   0  0  0  0  0  0  0  0  0  0  0  0
    6.3244    2.4221    0.0000 C   0  0  0  0  0  0  0  0  0  0  0  0
    8.9056    0.9174    0.0000 C   0  0  0  0  0  0  0  0  0  0  0  0
    7.5967    3.2050    0.0000 C   0  0  0  0  0  0  0  0  0  0  0  0
    8.8689    2.4710    0.0000 C   0  0  0  0  0  0  0  0  0  0  0  0
  1  2  2  0
  2  3  1  0
  2  4  1  0
  3  5  1  0
  5  6  1  0
  6  7  1  0
  7  8  2  0
  7  9  1  0
  8 10  1  0
  9 11  2  0
 10 12  2  0
 11 12  1  0
M  END
>  <Structure No>
114

>  <Molecule Name>
5-Phenyl-2-pentanone

>  <PubChem CID>
16701

>  <SMILES>
CC(CCCc1ccccc1)=O

>  <InChIKey>
DGMYRPFYNFQCHM-UHFFFAOYSA-N

>  <Molecular Formula>
C11H14O

>  <Target Organism>
Aedes aegypti

>  <Reference DOI>
10.3390/toxics11100837

>  <Activity Label>
1

>  <Repellency>
Active

>  <IUPAC>
5-phenylpentan-2-one

>  <Common name>
5-Phenyl-2-pentanone

$$$$
Compound 115
     RDKit          2D

 12 12  0  0  0  0  0  0  0  0999 V2000
    0.0000    0.0000    0.0000 O   0  0  0  0  0  0  0  0  0  0  0  0
    1.2612    0.7640    0.0000 C   0  0  0  0  0  0  0  0  0  0  0  0
   -1.3340    0.7640    0.0000 C   0  0  0  0  0  0  0  0  0  0  0  0
    2.5225    0.0242    0.0000 C   0  0  0  0  0  0  0  0  0  0  0  0
    1.2248    2.3042    0.0000 C   0  0  0  0  0  0  0  0  0  0  0  0
    3.7838    0.7882    0.0000 C   0  0  0  0  0  0  0  0  0  0  0  0
    2.4861   -1.4431    0.0000 C   0  0  0  0  0  0  0  0  0  0  0  0
    2.4861    3.0804    0.0000 C   0  0  0  0  0  0  0  0  0  0  0  0
    3.7474    2.3285    0.0000 C   0  0  0  0  0  0  0  0  0  0  0  0
    2.4497    4.6206    0.0000 C   0  0  0  0  0  0  0  0  0  0  0  0
    3.7110    5.3846    0.0000 C   0  0  0  0  0  0  0  0  0  0  0  0
    1.1157    5.3846    0.0000 C   0  0  0  0  0  0  0  0  0  0  0  0
  1  2  1  0
  1  3  1  0
  2  4  2  0
  2  5  1  0
  4  6  1  0
  4  7  1  0
  5  8  2  0
  6  9  2  0
  8 10  1  0
 10 11  1  0
 10 12  1  0
  8  9  1  0
M  END
>  <Structure No>
115

>  <Molecule Name>
Carvacryl methyl ether; carvacrol methyl ether

>  <PubChem CID>
80790

>  <SMILES>
CC(C)c1cc(OC)c(C)cc1; CC1=C(C=C(C=C1)C(C)C)OC

>  <InChIKey>
YVLHTQPPMZOCOW-UHFFFAOYSA-N

>  <Molecular Formula>
C11H16O

>  <Target Organism>
Anopheles spp.; Aedes albopictus

>  <Reference DOI>
10.1186/s13071-017-2122-8; 10.1016/j.jep.2018.11.031

>  <Activity Label>
1

>  <Repellency>
Active

>  <IUPAC>
2-methoxy-1-methyl-4-propan-2-ylbenzene

>  <Common name>
Carvacryl methyl ether; carvacrol methyl ether

$$$$
Compound 116
     RDKit          2D

 12 12  0  0  0  0  0  0  0  0999 V2000
    0.0000    0.0000    0.0000 O   0  0  0  0  0  0  0  0  0  0  0  0
   -0.0760   -1.4578    0.0000 C   0  0  0  0  0  0  0  0  0  0  0  0
   -0.1521   -2.9157    0.0000 C   0  0  0  0  0  0  0  0  0  0  0  0
    1.3818   -1.3818    0.0000 C   0  0  0  0  0  0  0  0  0  0  0  0
   -1.6860   -1.3818    0.0000 C   0  0  0  0  0  0  0  0  0  0  0  0
   -1.5466   -3.6383    0.0000 C   0  0  0  0  0  0  0  0  0  0  0  0
    1.0902   -3.6383    0.0000 C   0  0  0  0  0  0  0  0  0  0  0  0
   -1.6226   -5.0962    0.0000 C   0  0  0  0  0  0  0  0  0  0  0  0
   -2.9411   -2.8270    0.0000 C   0  0  0  0  0  0  0  0  0  0  0  0
    1.0141   -5.0962    0.0000 C   0  0  0  0  0  0  0  0  0  0  0  0
   -0.3803   -5.8188    0.0000 C   0  0  0  0  0  0  0  0  0  0  0  0
   -0.4563   -7.2767    0.0000 C   0  0  0  0  0  0  0  0  0  0  0  0
  1  2  1  0
  2  3  1  0
  2  4  1  0
  2  5  1  0
  3  6  1  0
  3  7  1  0
  6  8  1  0
  6  9  1  0
  7 10  1  0
  8 11  1  0
 11 12  1  0
 10 11  1  0
M  END
>  <Structure No>
116

>  <Molecule Name>
2-(2,4-Dimethylcyclohexyl)propan-2-ol

>  <PubChem CID>
67477161

>  <SMILES>
CC(CC1)CC(C)C1C(C)(C)O

>  <InChIKey>
CPLTZFUXHDJQHV-UHFFFAOYSA-N

>  <Molecular Formula>
C11H22O

>  <Target Organism>
Aedes albopictus

>  <Reference DOI>
10.1021/acs.jafc.2c05537

>  <Activity Label>
1

>  <Repellency>
Active

>  <IUPAC>
2-(2,4-dimethylcyclohexyl)propan-2-ol

>  <Common name>
2-(2,4-Dimethylcyclohexyl)propan-2-ol

$$$$
Compound 117
     RDKit          2D

 12 12  0  0  0  0  0  0  0  0999 V2000
    0.0000    0.0000    0.0000 O   0  0  0  0  0  0  0  0  0  0  0  0
   -0.0475    1.5102    0.0000 C   0  0  0  0  0  0  0  0  0  0  0  0
   -1.3556    2.2713    0.0000 C   0  0  0  0  0  0  0  0  0  0  0  0
   -1.4032    3.7816    0.0000 C   0  0  0  0  0  0  0  0  0  0  0  0
   -2.6638    1.5578    0.0000 C   0  0  0  0  0  0  0  0  0  0  0  0
   -2.7113    4.5427    0.0000 C   0  0  0  0  0  0  0  0  0  0  0  0
   -3.9719    2.3189    0.0000 C   0  0  0  0  0  0  0  0  0  0  0  0
   -2.7589    6.0530    0.0000 O   0  0  0  0  0  0  0  0  0  0  0  0
   -4.0195    3.8292    0.0000 C   0  0  0  0  0  0  0  0  0  0  0  0
   -1.5459    6.8141    0.0000 C   0  0  0  0  0  0  0  0  0  0  0  0
   -5.3276    4.5903    0.0000 O   0  0  0  0  0  0  0  0  0  0  0  0
   -6.6357    3.8767    0.0000 C   0  0  0  0  0  0  0  0  0  0  0  0
  1  2  2  0
  2  3  1  0
  3  4  2  0
  3  5  1  0
  4  6  1  0
  5  7  2  0
  6  8  1  0
  6  9  2  0
  8 10  1  0
  9 11  1  0
 11 12  1  0
  7  9  1  0
M  END
>  <Structure No>
117

>  <Molecule Name>
3,4-Dimethoxy Benzaldehyde

>  <PubChem CID>
8419

>  <SMILES>
COc(ccc(C=O)c1)c1OC

>  <InChIKey>
WJUFSDZVCOTFON-UHFFFAOYSA-N

>  <Molecular Formula>
C9H10O3

>  <Target Organism>
Culex pipiens pallens; Aedes albopictus; Haemaphysalis longicornis

>  <Reference DOI>
10.3390/app11114861

>  <Activity Label>
1

>  <Repellency>
Active

>  <IUPAC>
3,4-dimethoxybenzaldehyde

>  <Common name>
3,4-Dimethoxy Benzaldehyde

$$$$
Compound 118
     RDKit          2D

  0  0  0  0  0  0  0  0  0  0999 V3000
M  V30 BEGIN CTAB
M  V30 COUNTS 12 12 0 0 0
M  V30 BEGIN ATOM
M  V30 1 Cl 0.000000 0.000000 0.000000 0
M  V30 2 C -1.312600 0.751800 0.000000 0
M  V30 3 C -2.625300 0.023800 0.000000 0
M  V30 4 C -3.938000 0.775600 0.000000 0
M  V30 5 O -3.973800 2.291200 0.000000 0
M  V30 6 O -5.250700 0.047700 0.000000 0
M  V30 7 C -6.563400 0.799500 0.000000 0
M  V30 8 C -7.876100 0.071600 0.000000 0
M  V30 9 O -8.067000 -1.360400 0.000000 0
M  V30 10 C -9.260400 0.727900 0.000000 0
M  V30 11 C -9.546800 -1.634800 0.000000 0
M  V30 12 C -10.274700 -0.322200 0.000000 0
M  V30 END ATOM
M  V30 BEGIN BOND
M  V30 1 1 1 2
M  V30 2 1 2 3
M  V30 3 1 3 4
M  V30 4 2 4 5
M  V30 5 1 4 6
M  V30 6 1 6 7
M  V30 7 1 8 7 CFG=3
M  V30 8 1 8 9
M  V30 9 1 8 10
M  V30 10 1 9 11
M  V30 11 1 10 12
M  V30 12 1 11 12
M  V30 END BOND
M  V30 BEGIN COLLECTION
M  V30 MDLV30/STERAC1 ATOMS=(1 8)
M  V30 END COLLECTION
M  V30 END CTAB
M  END
>  <Structure No>
118

>  <Molecule Name>
Oxolan-2-ylmethyl 3-chloropropanoate

>  <PubChem CID>
551317

>  <SMILES>
O=C(CCCl)OCC1OCCC1

>  <InChIKey>
GOKMPKJTXRTDFE-SSDOTTSWSA-N

>  <Molecular Formula>
C8H13O3Cl

>  <Target Organism>
Aedes aegypti

>  <Reference DOI>
10.3390/toxics11100837

>  <Activity Label>
1

>  <Repellency>
Active

>  <IUPAC>
oxolan-2-ylmethyl 3-chloropropanoate

>  <Common name>
Oxolan-2-ylmethyl 3-chloropropanoate

$$$$
Compound 119
     RDKit          2D

 12 12  0  0  0  0  0  0  0  0999 V2000
    0.0000    0.0000    0.0000 O   0  0  0  0  0  0  0  0  0  0  0  0
   -0.0359    1.5219    0.0000 C   0  0  0  0  0  0  0  0  0  0  0  0
   -1.3541    2.2889    0.0000 O   0  0  0  0  0  0  0  0  0  0  0  0
    1.2103    2.2889    0.0000 C   0  0  0  0  0  0  0  0  0  0  0  0
   -2.6724    1.5698    0.0000 C   0  0  0  0  0  0  0  0  0  0  0  0
    1.1744    3.8108    0.0000 C   0  0  0  0  0  0  0  0  0  0  0  0
   -3.9906    2.3368    0.0000 C   0  0  0  0  0  0  0  0  0  0  0  0
   -2.7083    0.1198    0.0000 C   0  0  0  0  0  0  0  0  0  0  0  0
    1.1384    5.3328    0.0000 N   0  0  0  0  0  0  0  0  0  0  0  0
   -5.3088    1.6178    0.0000 C   0  0  0  0  0  0  0  0  0  0  0  0
   -4.0266   -0.5872    0.0000 C   0  0  0  0  0  0  0  0  0  0  0  0
   -5.3448    0.1677    0.0000 C   0  0  0  0  0  0  0  0  0  0  0  0
  1  2  2  0
  2  3  1  0
  2  4  1  0
  3  5  1  0
  4  6  1  0
  5  7  1  0
  5  8  1  0
  6  9  3  0
  7 10  1  0
  8 11  1  0
 10 12  1  0
 11 12  1  0
M  END
>  <Structure No>
119

>  <Molecule Name>
Cyclohexyl cyanoacetate

>  <PubChem CID>
96357

>  <SMILES>
N#CCC(OC1CCCCC1)=O

>  <InChIKey>
YESQLMJPTKPRSK-UHFFFAOYSA-N

>  <Molecular Formula>
C9H13NO2

>  <Target Organism>
Aedes aegypti

>  <Reference DOI>
10.3390/toxics11100837

>  <Activity Label>
1

>  <Repellency>
Active

>  <IUPAC>
cyclohexyl 2-cyanoacetate

>  <Common name>
Cyclohexyl cyanoacetate

$$$$
Compound 120
     RDKit          2D

 12 12  0  0  0  0  0  0  0  0999 V2000
    0.0000    0.0000    0.0000 O   0  0  0  0  0  0  0  0  0  0  0  0
   -0.0349   -1.4807    0.0000 C   0  0  0  0  0  0  0  0  0  0  0  0
   -1.3874   -2.1919    0.0000 O   0  0  0  0  0  0  0  0  0  0  0  0
    1.2475   -2.1919    0.0000 C   0  0  0  0  0  0  0  0  0  0  0  0
   -2.7399   -1.3991    0.0000 C   0  0  0  0  0  0  0  0  0  0  0  0
    1.2125   -3.6727    0.0000 C   0  0  0  0  0  0  0  0  0  0  0  0
    2.5301   -1.3991    0.0000 C   0  0  0  0  0  0  0  0  0  0  0  0
   -4.0924   -2.1103    0.0000 C   0  0  0  0  0  0  0  0  0  0  0  0
   -0.1399   -4.3723    0.0000 N   0  0  0  0  0  0  0  0  0  0  0  0
    2.4951   -4.3839    0.0000 C   0  0  0  0  0  0  0  0  0  0  0  0
    3.8126   -2.1103    0.0000 C   0  0  0  0  0  0  0  0  0  0  0  0
    3.7776   -3.5794    0.0000 C   0  0  0  0  0  0  0  0  0  0  0  0
  1  2  2  0
  2  3  1  0
  2  4  1  0
  3  5  1  0
  4  6  2  0
  4  7  1  0
  5  8  1  0
  6  9  1  0
  6 10  1  0
  7 11  2  0
 10 12  2  0
 11 12  1  0
M  END
>  <Structure No>
120

>  <Molecule Name>
Ethyl 2-aminobenzoate

>  <PubChem CID>
6877

>  <SMILES>
CCOC(c(cccc1)c1N)=O

>  <InChIKey>
TWLLPUMZVVGILS-UHFFFAOYSA-N

>  <Molecular Formula>
C9H11NO2

>  <Target Organism>
Aedes aegypti

>  <Reference DOI>
10.3390/toxics11100837

>  <Activity Label>
1

>  <Repellency>
Active

>  <IUPAC>
ethyl 2-aminobenzoate

>  <Common name>
Ethyl 2-aminobenzoate

$$$$
Compound 121
     RDKit          2D

 12 12  0  0  0  0  0  0  0  0999 V2000
    0.0000    0.0000    0.0000 O   0  0  0  0  0  0  0  0  0  0  0  0
    0.2788   -1.4523    0.0000 C   0  0  0  0  0  0  0  0  0  0  0  0
    1.6382   -2.0216    0.0000 N   0  0  0  0  0  0  0  0  0  0  0  0
   -0.7784   -2.5561    0.0000 C   0  0  0  0  0  0  0  0  0  0  0  0
    1.4523   -3.4972    0.0000 C   0  0  0  0  0  0  0  0  0  0  0  0
    2.9279   -1.2083    0.0000 C   0  0  0  0  0  0  0  0  0  0  0  0
   -0.0697   -3.8458    0.0000 C   0  0  0  0  0  0  0  0  0  0  0  0
    2.5561   -4.4848    0.0000 O   0  0  0  0  0  0  0  0  0  0  0  0
    4.2176   -1.9171    0.0000 C   0  0  0  0  0  0  0  0  0  0  0  0
    5.5073   -1.1037    0.0000 C   0  0  0  0  0  0  0  0  0  0  0  0
    6.7970   -1.8125    0.0000 C   0  0  0  0  0  0  0  0  0  0  0  0
    8.0867   -0.9992    0.0000 C   0  0  0  0  0  0  0  0  0  0  0  0
  1  2  2  0
  2  3  1  0
  2  4  1  0
  3  5  1  0
  3  6  1  0
  4  7  1  0
  5  8  2  0
  6  9  1  0
  9 10  1  0
 10 11  1  0
 11 12  1  0
  5  7  1  0
M  END
>  <Structure No>
121

>  <Molecule Name>
1-Pentyl-2,5-pyrrolidinedione

>  <PubChem CID>
79245

>  <SMILES>
CCCCCN(C(CC1)=O)C1=O

>  <InChIKey>
NEQDNPLLVJBQNJ-UHFFFAOYSA-N

>  <Molecular Formula>
C9H15NO2

>  <Target Organism>
Aedes aegypti

>  <Reference DOI>
10.3390/toxics11100837

>  <Activity Label>
1

>  <Repellency>
Active

>  <IUPAC>
1-pentylpyrrolidine-2,5-dione

>  <Common name>
1-Pentyl-2,5-pyrrolidinedione

$$$$
Compound 122
     RDKit          2D

 12 12  0  0  0  0  0  0  0  0999 V2000
    0.0000    0.0000    0.0000 O   0  0  0  0  0  0  0  0  0  0  0  0
   -0.0349   -1.4781    0.0000 C   0  0  0  0  0  0  0  0  0  0  0  0
   -1.3850   -2.1998    0.0000 O   0  0  0  0  0  0  0  0  0  0  0  0
    1.2454   -2.1998    0.0000 C   0  0  0  0  0  0  0  0  0  0  0  0
   -2.7352   -1.3967    0.0000 C   0  0  0  0  0  0  0  0  0  0  0  0
    2.5257   -1.3967    0.0000 C   0  0  0  0  0  0  0  0  0  0  0  0
    1.2104   -3.6780    0.0000 C   0  0  0  0  0  0  0  0  0  0  0  0
   -4.0854   -2.1183    0.0000 C   0  0  0  0  0  0  0  0  0  0  0  0
    3.8060   -2.1183    0.0000 C   0  0  0  0  0  0  0  0  0  0  0  0
    2.4908   -4.3880    0.0000 C   0  0  0  0  0  0  0  0  0  0  0  0
    5.0863   -1.3152    0.0000 N   0  0  0  0  0  0  0  0  0  0  0  0
    3.7711   -3.5965    0.0000 C   0  0  0  0  0  0  0  0  0  0  0  0
  1  2  2  0
  2  3  1  0
  2  4  1  0
  3  5  1  0
  4  6  2  0
  4  7  1  0
  5  8  1  0
  6  9  1  0
  7 10  2  0
  9 11  1  0
  9 12  2  0
 10 12  1  0
M  END
>  <Structure No>
122

>  <Molecule Name>
Ethyl 3-aminobenzoate

>  <PubChem CID>
11400

>  <SMILES>
CCOC(c1cc(N)ccc1)=O

>  <InChIKey>
ZMCBYSBVJIMENC-UHFFFAOYSA-N

>  <Molecular Formula>
C9H11NO2

>  <Target Organism>
Aedes aegypti

>  <Reference DOI>
10.3390/toxics11100837

>  <Activity Label>
1

>  <Repellency>
Active

>  <IUPAC>
ethyl 3-aminobenzoate

>  <Common name>
Ethyl 3-aminobenzoate

$$$$
Compound 123
     RDKit          2D

 12 12  0  0  0  0  0  0  0  0999 V2000
    0.0000    0.0000    0.0000 O   0  0  0  0  0  0  0  0  0  0  0  0
    1.2590    0.7626    0.0000 C   0  0  0  0  0  0  0  0  0  0  0  0
    2.5180    0.0363    0.0000 C   0  0  0  0  0  0  0  0  0  0  0  0
    3.7770    0.8232    0.0000 N   0  0  0  0  0  0  0  0  0  0  0  0
    3.7407    2.3606    0.0000 C   0  0  0  0  0  0  0  0  0  0  0  0
    5.0360    0.0968    0.0000 C   0  0  0  0  0  0  0  0  0  0  0  0
    4.9997    3.1354    0.0000 C   0  0  0  0  0  0  0  0  0  0  0  0
    2.4090    3.1354    0.0000 C   0  0  0  0  0  0  0  0  0  0  0  0
    6.2950    0.8837    0.0000 C   0  0  0  0  0  0  0  0  0  0  0  0
    4.9634    4.6728    0.0000 C   0  0  0  0  0  0  0  0  0  0  0  0
    2.3727    4.6728    0.0000 C   0  0  0  0  0  0  0  0  0  0  0  0
    3.6317    5.4476    0.0000 C   0  0  0  0  0  0  0  0  0  0  0  0
  1  2  1  0
  2  3  1  0
  3  4  1  0
  4  5  1  0
  4  6  1  0
  5  7  2  0
  5  8  1  0
  6  9  1  0
  7 10  1  0
  8 11  2  0
 10 12  2  0
 11 12  1  0
M  END
>  <Structure No>
123

>  <Molecule Name>
2-(N-ethylanilino)ethanol

>  <PubChem CID>
62338

>  <SMILES>
CCN(CCO)c1ccccc1

>  <InChIKey>
HYVGFUIWHXLVNV-UHFFFAOYSA-N

>  <Molecular Formula>
C10H15NO

>  <Target Organism>
Aedes aegypti

>  <Reference DOI>
10.3390/toxics11100837

>  <Activity Label>
1

>  <Repellency>
Active

>  <IUPAC>
2-(N-ethylanilino)ethanol

>  <Common name>
2-(N-ethylanilino)ethanol

$$$$
Compound 124
     RDKit          2D

 12 13  0  0  0  0  0  0  0  0999 V2000
    0.0000    0.0000    0.0000 O   0  0  0  0  0  0  0  0  0  0  0  0
   -1.4992   -0.3541    0.0000 C   0  0  0  0  0  0  0  0  0  0  0  0
    0.7555   -1.0742    0.0000 C   0  0  0  0  0  0  0  0  0  0  0  0
   -1.6055   -1.7235    0.0000 C   0  0  0  0  0  0  0  0  0  0  0  0
   -2.8805    0.4604    0.0000 C   0  0  0  0  0  0  0  0  0  0  0  0
   -0.2006   -2.1485    0.0000 O   0  0  0  0  0  0  0  0  0  0  0  0
   -2.9867   -2.3728    0.0000 C   0  0  0  0  0  0  0  0  0  0  0  0
   -4.2617   -0.1888    0.0000 C   0  0  0  0  0  0  0  0  0  0  0  0
   -4.3679   -1.5465    0.0000 C   0  0  0  0  0  0  0  0  0  0  0  0
   -5.6429    0.6256    0.0000 C   0  0  0  0  0  0  0  0  0  0  0  0
   -7.0241   -0.0236    0.0000 C   0  0  0  0  0  0  0  0  0  0  0  0
   -8.4054    0.8027    0.0000 C   0  0  0  0  0  0  0  0  0  0  0  0
  1  2  1  0
  1  3  1  0
  2  4  2  0
  2  5  1  0
  3  6  1  0
  4  7  1  0
  5  8  2  0
  7  9  2  0
  8 10  1  0
 10 11  1  0
 11 12  2  0
  4  6  1  0
  8  9  1  0
M  END
>  <Structure No>
124

>  <Molecule Name>
Safrole

>  <PubChem CID>
5144

>  <SMILES>
C=CCc(cc1)cc2c1OCO2

>  <InChIKey>
ZMQAAUBTXCXRIC-UHFFFAOYSA-N

>  <Molecular Formula>
C10H10O2

>  <Target Organism>
Anopheles spp.

>  <Reference DOI>
10.1186/s13071-017-2122-8

>  <Activity Label>
1

>  <Repellency>
Active

>  <IUPAC>
5-prop-2-enyl-1,3-benzodioxole

>  <Common name>
Safrole

$$$$
Compound 125
     RDKit          2D

 12 13  0  0  0  0  0  0  0  0999 V2000
    0.0000    0.0000    0.0000 O   0  0  0  0  0  0  0  0  0  0  0  0
   -0.7890    1.2182    0.0000 C   0  0  0  0  0  0  0  0  0  0  0  0
   -2.0488    1.9380    0.0000 C   0  0  0  0  0  0  0  0  0  0  0  0
    0.7475    2.4364    0.0000 C   0  0  0  0  0  0  0  0  0  0  0  0
   -1.4396    0.0000    0.0000 C   0  0  0  0  0  0  0  0  0  0  0  0
   -3.3085    1.3012    0.0000 O   0  0  0  0  0  0  0  0  0  0  0  0
   -2.0903    3.3777    0.0000 C   0  0  0  0  0  0  0  0  0  0  0  0
    1.0520    3.8345    0.0000 C   0  0  0  0  0  0  0  0  0  0  0  0
   -0.6506    2.8240    0.0000 C   0  0  0  0  0  0  0  0  0  0  0  0
   -0.3322    4.1806    0.0000 C   0  0  0  0  0  0  0  0  0  0  0  0
    2.4087    3.8761    0.0000 C   0  0  0  0  0  0  0  0  0  0  0  0
    1.6888    5.0943    0.0000 C   0  0  0  0  0  0  0  0  0  0  0  0
  1  2  1  0
  2  3  1  0
  2  4  1  0
  2  5  1  0
  3  6  1  0
  3  7  1  0
  4  8  1  0
  4  9  1  0
  7 10  1  0
  8 11  1  0
  8 12  1  0
  8 10  1  0
  9 10  1  0
M  END
>  <Structure No>
125

>  <Molecule Name>
2,3-Pinanediol

>  <PubChem CID>
62044

>  <SMILES>
CC(C)(C(C1)CC2O)C1C2(C)O

>  <InChIKey>
MOILFCKRQFQVFS-UHFFFAOYSA-N

>  <Molecular Formula>
C10H18O2

>  <Target Organism>
Aedes aegypti

>  <Reference DOI>
10.3390/toxics11100837

>  <Activity Label>
1

>  <Repellency>
Active

>  <IUPAC>
2,6,6-trimethylbicyclo[3.1.1]heptane-2,3-diol

>  <Common name>
2,3-Pinanediol

$$$$
Compound 126
     RDKit          2D

 12 13  0  0  0  0  0  0  0  0999 V2000
    0.0000    0.0000    0.0000 O   0  0  0  0  0  0  0  0  0  0  0  0
   -1.3423   -0.7246    0.0000 C   0  0  0  0  0  0  0  0  0  0  0  0
    1.2710   -0.7246    0.0000 C   0  0  0  0  0  0  0  0  0  0  0  0
   -1.5324   -2.1857    0.0000 C   0  0  0  0  0  0  0  0  0  0  0  0
   -2.7560   -0.0712    0.0000 C   0  0  0  0  0  0  0  0  0  0  0  0
   -3.0411   -2.4708    0.0000 C   0  0  0  0  0  0  0  0  0  0  0  0
   -0.5702   -3.2668    0.0000 C   0  0  0  0  0  0  0  0  0  0  0  0
   -3.1123    1.4373    0.0000 O   0  0  0  0  0  0  0  0  0  0  0  0
   -3.7895   -1.1522    0.0000 C   0  0  0  0  0  0  0  0  0  0  0  0
   -3.5400   -3.8607    0.0000 C   0  0  0  0  0  0  0  0  0  0  0  0
   -1.0691   -4.6566    0.0000 C   0  0  0  0  0  0  0  0  0  0  0  0
   -2.5778   -4.9417    0.0000 C   0  0  0  0  0  0  0  0  0  0  0  0
  1  2  1  0
  1  3  1  0
  2  4  1  0
  2  5  1  0
  4  6  2  0
  4  7  1  0
  5  8  1  0
  5  9  1  0
  6 10  1  0
  7 11  2  0
 10 12  2  0
  6  9  1  0
 11 12  1  0
M  END
>  <Structure No>
126

>  <Molecule Name>
2,3-Dihydro-1-methoxy-1H-inden-2-ol

>  <PubChem CID>
143339

>  <SMILES>
COC(C(C1)O)c2c1cccc2

>  <InChIKey>
ZHWPZRVYPHGXSF-UHFFFAOYSA-N

>  <Molecular Formula>
C10H12O2

>  <Target Organism>
Aedes aegypti

>  <Reference DOI>
10.3390/toxics11100837

>  <Activity Label>
1

>  <Repellency>
Active

>  <IUPAC>
1-methoxy-2,3-dihydro-1H-inden-2-ol

>  <Common name>
2,3-Dihydro-1-methoxy-1H-inden-2-ol

$$$$
Compound 127
     RDKit          2D

 12 13  0  0  0  0  0  0  0  0999 V2000
    0.0000    0.0000    0.0000 O   0  0  0  0  0  0  0  0  0  0  0  0
   -0.0352   -1.4901    0.0000 C   0  0  0  0  0  0  0  0  0  0  0  0
    1.2555   -2.2059    0.0000 C   0  0  0  0  0  0  0  0  0  0  0  0
   -1.3963   -2.1942    0.0000 C   0  0  0  0  0  0  0  0  0  0  0  0
    1.2203   -3.6961    0.0000 C   0  0  0  0  0  0  0  0  0  0  0  0
    2.5462   -1.3963    0.0000 C   0  0  0  0  0  0  0  0  0  0  0  0
   -1.4315   -3.6844    0.0000 C   0  0  0  0  0  0  0  0  0  0  0  0
   -0.1408   -4.4001    0.0000 C   0  0  0  0  0  0  0  0  0  0  0  0
    2.5110   -4.4119    0.0000 C   0  0  0  0  0  0  0  0  0  0  0  0
   -0.1760   -5.8903    0.0000 C   0  0  0  0  0  0  0  0  0  0  0  0
    2.4758   -5.9021    0.0000 C   0  0  0  0  0  0  0  0  0  0  0  0
    1.1147   -6.6296    0.0000 C   0  0  0  0  0  0  0  0  0  0  0  0
  1  2  1  0
  2  3  1  0
  2  4  1  0
  3  5  1  0
  3  6  1  0
  4  7  1  0
  5  8  2  0
  5  9  1  0
  8 10  1  0
  9 11  2  0
 10 12  2  0
  7  8  1  0
 11 12  1  0
M  END
>  <Structure No>
127

>  <Molecule Name>
1-Methyl-1,2,3,4-tetrahydronaphthalen-2-ol

>  <PubChem CID>
250086

>  <SMILES>
CC(C(CC1)O)c2c1cccc2

>  <InChIKey>
RINJSWVIDJTJRL-UHFFFAOYSA-N

>  <Molecular Formula>
C11H14O

>  <Target Organism>
Aedes aegypti

>  <Reference DOI>
10.3390/toxics11100837

>  <Activity Label>
1

>  <Repellency>
Active

>  <IUPAC>
1-methyl-1,2,3,4-tetrahydronaphthalen-2-ol

>  <Common name>
1-Methyl-1,2,3,4-tetrahydronaphthalen-2-ol

$$$$
Compound 128
     RDKit          2D

 12 13  0  0  0  0  0  0  0  0999 V2000
    0.0000    0.0000    0.0000 N   0  0  0  0  0  0  0  0  0  0  0  0
   -1.4422   -0.4291    0.0000 C   0  0  0  0  0  0  0  0  0  0  0  0
    0.2741    1.4780    0.0000 C   0  0  0  0  0  0  0  0  0  0  0  0
   -2.5626    0.5840    0.0000 C   0  0  0  0  0  0  0  0  0  0  0  0
   -0.8462    2.4911    0.0000 C   0  0  0  0  0  0  0  0  0  0  0  0
   -4.0049    0.1549    0.0000 C   0  0  0  0  0  0  0  0  0  0  0  0
   -2.2885    2.0620    0.0000 C   0  0  0  0  0  0  0  0  0  0  0  0
   -5.2326    1.0489    0.0000 N   0  0  0  0  0  0  0  0  0  0  0  0
   -4.5055   -1.2157    0.0000 C   0  0  0  0  0  0  0  0  0  0  0  0
   -6.4603    0.2264    0.0000 C   0  0  0  0  0  0  0  0  0  0  0  0
   -5.2684    2.5626    0.0000 C   0  0  0  0  0  0  0  0  0  0  0  0
   -6.0193   -1.1800    0.0000 C   0  0  0  0  0  0  0  0  0  0  0  0
  1  2  2  0
  1  3  1  0
  2  4  1  0
  3  5  2  0
  4  6  1  0
  4  7  2  0
  6  8  1  0
  6  9  2  0
  8 10  1  0
  8 11  1  0
  9 12  1  0
  5  7  1  0
 10 12  2  0
M  END
>  <Structure No>
128

>  <Molecule Name>
Nicotyrine

>  <PubChem CID>
10249

>  <SMILES>
C[n]1c(-c2cccnc2)ccc1

>  <InChIKey>
RYFOJXFXERAMLS-UHFFFAOYSA-N

>  <Molecular Formula>
C10H10N2

>  <Target Organism>
Aedes aegypti

>  <Reference DOI>
10.3390/toxics11100837

>  <Activity Label>
1

>  <Repellency>
Active

>  <IUPAC>
3-(1-methylpyrrol-2-yl)pyridine

>  <Common name>
Nicotyrine

$$$$
Compound 129
     RDKit          2D

 12 13  0  0  0  0  0  0  0  0999 V2000
    0.0000    0.0000    0.0000 N   0  0  0  0  0  0  0  0  0  0  0  0
    1.2787   -0.7377    0.0000 C   0  0  0  0  0  0  0  0  0  0  0  0
    2.5574   -1.4754    0.0000 C   0  0  0  0  0  0  0  0  0  0  0  0
    3.8361   -0.6885    0.0000 C   0  0  0  0  0  0  0  0  0  0  0  0
    2.5205   -2.9631    0.0000 C   0  0  0  0  0  0  0  0  0  0  0  0
    5.1148   -1.4262    0.0000 C   0  0  0  0  0  0  0  0  0  0  0  0
    3.7992    0.8729    0.0000 C   0  0  0  0  0  0  0  0  0  0  0  0
    3.7992   -3.7131    0.0000 C   0  0  0  0  0  0  0  0  0  0  0  0
    5.0779   -2.9139    0.0000 C   0  0  0  0  0  0  0  0  0  0  0  0
    6.3935   -0.6393    0.0000 C   0  0  0  0  0  0  0  0  0  0  0  0
    5.0779    1.6598    0.0000 C   0  0  0  0  0  0  0  0  0  0  0  0
    6.3566    0.9221    0.0000 C   0  0  0  0  0  0  0  0  0  0  0  0
  1  2  3  0
  2  3  1  0
  3  4  2  0
  3  5  1  0
  4  6  1  0
  4  7  1  0
  5  8  2  0
  6  9  2  0
  6 10  1  0
  7 11  2  0
 10 12  2  0
  8  9  1  0
 11 12  1  0
M  END
>  <Structure No>
129

>  <Molecule Name>
1-Naphthalenecarbonitrile

>  <PubChem CID>
6846

>  <SMILES>
N#Cc1cccc2c1cccc2

>  <InChIKey>
YJMNOKOLADGBKA-UHFFFAOYSA-N

>  <Molecular Formula>
C11H7N

>  <Target Organism>
Aedes aegypti

>  <Reference DOI>
10.3390/toxics11100837

>  <Activity Label>
1

>  <Repellency>
Active

>  <IUPAC>
naphthalene-1-carbonitrile

>  <Common name>
1-Naphthalenecarbonitrile

$$$$
Compound 130
     RDKit          2D

 12 13  0  0  0  0  0  0  0  0999 V2000
    0.0000    0.0000    0.0000 O   0  0  0  0  0  0  0  0  0  0  0  0
   -0.0738    1.5625    0.0000 C   0  0  0  0  0  0  0  0  0  0  0  0
   -1.4272    2.3500    0.0000 N   0  0  0  0  0  0  0  0  0  0  0  0
    1.1319    2.3500    0.0000 C   0  0  0  0  0  0  0  0  0  0  0  0
   -1.5010    3.9126    0.0000 C   0  0  0  0  0  0  0  0  0  0  0  0
    1.0581    3.9126    0.0000 C   0  0  0  0  0  0  0  0  0  0  0  0
    2.4607    1.9440    0.0000 C   0  0  0  0  0  0  0  0  0  0  0  0
   -0.2952    4.7000    0.0000 C   0  0  0  0  0  0  0  0  0  0  0  0
    2.3869    4.4663    0.0000 C   0  0  0  0  0  0  0  0  0  0  0  0
    3.2359    3.1990    0.0000 C   0  0  0  0  0  0  0  0  0  0  0  0
    2.8668    0.6028    0.0000 C   0  0  0  0  0  0  0  0  0  0  0  0
   -0.3691    6.2626    0.0000 C   0  0  0  0  0  0  0  0  0  0  0  0
  1  2  2  0
  2  3  1  0
  2  4  1  0
  3  5  1  0
  4  6  1  0
  4  7  1  0
  5  8  2  0
  6  9  1  0
  7 10  1  0
  7 11  1  0
  8 12  1  0
  6  8  1  0
  9 10  1  0
M  END
>  <Structure No>
130

>  <Molecule Name>
Nepetalactam

>  <PubChem CID>
14133657

>  <SMILES>
CC(CCC1C(C)=CN2)C1C2=O

>  <InChIKey>
UFGRADREDASLJW-UHFFFAOYSA-N

>  <Molecular Formula>
C10H15NO

>  <Target Organism>
Aedes aegypti

>  <Reference DOI>
10.1111/j.1365-2915.2011.00949.x

>  <Activity Label>
1

>  <Repellency>
Active

>  <IUPAC>
4,7-dimethyl-2,4a,5,6,7,7a-hexahydrocyclopenta[c]pyridin-1-one

>  <Common name>
Nepetalactam

$$$$
Compound 131
     RDKit          2D

 12 11  0  0  0  0  0  0  0  0999 V2000
    0.0000    0.0000    0.0000 O   0  0  0  0  0  0  0  0  0  0  0  0
    1.2943   -0.7060    0.0000 C   0  0  0  0  0  0  0  0  0  0  0  0
    1.2590   -2.2003    0.0000 O   0  0  0  0  0  0  0  0  0  0  0  0
    2.5886    0.1059    0.0000 C   0  0  0  0  0  0  0  0  0  0  0  0
    3.8830   -0.6001    0.0000 C   0  0  0  0  0  0  0  0  0  0  0  0
    5.1773    0.2118    0.0000 C   0  0  0  0  0  0  0  0  0  0  0  0
    6.4717   -0.4942    0.0000 C   0  0  0  0  0  0  0  0  0  0  0  0
    7.7660    0.3059    0.0000 C   0  0  0  0  0  0  0  0  0  0  0  0
    9.0604   -0.4000    0.0000 C   0  0  0  0  0  0  0  0  0  0  0  0
   10.3547    0.4118    0.0000 C   0  0  0  0  0  0  0  0  0  0  0  0
   11.6490   -0.2941    0.0000 C   0  0  0  0  0  0  0  0  0  0  0  0
   12.9434    0.5177    0.0000 C   0  0  0  0  0  0  0  0  0  0  0  0
  1  2  2  0
  2  3  1  0
  2  4  1  0
  4  5  1  0
  5  6  1  0
  6  7  1  0
  7  8  1  0
  8  9  1  0
  9 10  1  0
 10 11  1  0
 11 12  1  0
M  END
>  <Structure No>
131

>  <Molecule Name>
Decanoic Acid; capric acid

>  <PubChem CID>
2969

>  <SMILES>
CCCCCCCCCC(O)=O; CCCCCCCCCC(=O)O

>  <InChIKey>
GHVNFZFCNZKVNT-UHFFFAOYSA-N

>  <Molecular Formula>
C10H20O2

>  <Target Organism>
Aedes aegypti

>  <Reference DOI>
10.3390/toxics11100837; 10.1021/jf300101w

>  <Activity Label>
1

>  <Repellency>
Active

>  <IUPAC>
decanoic acid

>  <Common name>
Decanoic Acid; capric acid

$$$$
Compound 132
     RDKit          2D

 12 11  0  0  0  0  0  0  0  0999 V2000
    0.0000    0.0000    0.0000 O   0  0  0  0  0  0  0  0  0  0  0  0
   -0.0366   -1.4782    0.0000 C   0  0  0  0  0  0  0  0  0  0  0  0
   -1.3805   -2.2235    0.0000 O   0  0  0  0  0  0  0  0  0  0  0  0
    1.2339   -2.2235    0.0000 C   0  0  0  0  0  0  0  0  0  0  0  0
    2.5045   -1.4416    0.0000 C   0  0  0  0  0  0  0  0  0  0  0  0
    3.7750   -2.1868    0.0000 C   0  0  0  0  0  0  0  0  0  0  0  0
    2.4678    0.1099    0.0000 C   0  0  0  0  0  0  0  0  0  0  0  0
    5.0456   -1.3927    0.0000 C   0  0  0  0  0  0  0  0  0  0  0  0
    6.3162   -2.1379    0.0000 C   0  0  0  0  0  0  0  0  0  0  0  0
    7.5868   -1.3438    0.0000 C   0  0  0  0  0  0  0  0  0  0  0  0
    8.8573   -2.0891    0.0000 C   0  0  0  0  0  0  0  0  0  0  0  0
    7.5501    0.2076    0.0000 C   0  0  0  0  0  0  0  0  0  0  0  0
  1  2  2  0
  2  3  1  0
  2  4  1  0
  4  5  2  0
  5  6  1  0
  5  7  1  0
  6  8  1  0
  8  9  1  0
  9 10  2  0
 10 11  1  0
 10 12  1  0
M  END
>  <Structure No>
132

>  <Molecule Name>
Geranic acid; geranic acid

>  <PubChem CID>
5275520

>  <SMILES>
CC(C)=CCC/C(\C)=C/C(O)=O; CC(=CCC/C(=C/C(=O)O)/C)C

>  <InChIKey>
ZHYZQXUYZJNEHD-VQHVLOKHSA-N

>  <Molecular Formula>
C10H16O2

>  <Target Organism>
Aedes aegypti

>  <Reference DOI>
10.3390/toxics11100837; 10.1002/ps.3518

>  <Activity Label>
1

>  <Repellency>
Active

>  <IUPAC>
(2E)-3,7-dimethylocta-2,6-dienoic acid

>  <Common name>
Geranic acid; geranic acid

$$$$
Compound 133
     RDKit          2D

  0  0  0  0  0  0  0  0  0  0999 V3000
M  V30 BEGIN CTAB
M  V30 COUNTS 12 11 0 0 0
M  V30 BEGIN ATOM
M  V30 1 O 0.000000 0.000000 0.000000 0
M  V30 2 C -0.036600 -1.478200 0.000000 0
M  V30 3 O -1.380500 -2.223500 0.000000 0
M  V30 4 C 1.233900 -2.223500 0.000000 0
M  V30 5 C 2.504500 -1.441600 0.000000 0
M  V30 6 C 3.775000 -2.186800 0.000000 0
M  V30 7 C 2.467800 0.109900 0.000000 0
M  V30 8 C 5.045600 -1.392700 0.000000 0
M  V30 9 C 6.316200 -2.137900 0.000000 0
M  V30 10 C 7.586800 -1.343800 0.000000 0
M  V30 11 C 8.857300 -2.089100 0.000000 0
M  V30 12 C 7.550100 0.207600 0.000000 0
M  V30 END ATOM
M  V30 BEGIN BOND
M  V30 1 2 1 2
M  V30 2 1 2 3
M  V30 3 1 2 4
M  V30 4 1 4 5
M  V30 5 1 5 6
M  V30 6 1 5 7 CFG=1
M  V30 7 1 6 8
M  V30 8 1 8 9
M  V30 9 2 9 10
M  V30 10 1 10 11
M  V30 11 1 10 12
M  V30 END BOND
M  V30 BEGIN COLLECTION
M  V30 MDLV30/STERAC1 ATOMS=(1 5)
M  V30 END COLLECTION
M  V30 END CTAB
M  END
>  <Structure No>
133

>  <Molecule Name>
Citronellic acid

>  <PubChem CID>
10402

>  <SMILES>
CC(CCC=C(C)C)CC(O)=O

>  <InChIKey>
GJWSUKYXUMVMGX-VIFPVBQESA-N

>  <Molecular Formula>
C10H18O2

>  <Target Organism>
Aedes aegypti

>  <Reference DOI>
10.3390/toxics11100837

>  <Activity Label>
1

>  <Repellency>
Active

>  <IUPAC>
3,7-dimethyloct-6-enoic acid

>  <Common name>
Citronellic acid

$$$$
Compound 134
     RDKit          2D

  0  0  0  0  0  0  0  0  0  0999 V3000
M  V30 BEGIN CTAB
M  V30 COUNTS 12 11 0 0 0
M  V30 BEGIN ATOM
M  V30 1 O 0.000000 0.000000 0.000000 0
M  V30 2 C 1.274200 0.784100 0.000000 0
M  V30 3 C 2.548500 0.036700 0.000000 0
M  V30 4 C 3.822800 0.820900 0.000000 0
M  V30 5 C 5.097100 0.073500 0.000000 0
M  V30 6 C 3.786000 2.377000 0.000000 0
M  V30 7 C 6.371300 0.857600 0.000000 0
M  V30 8 C 7.645600 0.110200 0.000000 0
M  V30 9 C 8.919900 0.894400 0.000000 0
M  V30 10 O 9.655000 -0.379800 0.000000 0
M  V30 11 C 8.135700 2.242200 0.000000 0
M  V30 12 C 10.194200 1.678600 0.000000 0
M  V30 END ATOM
M  V30 BEGIN BOND
M  V30 1 2 1 2
M  V30 2 1 2 3
M  V30 3 1 3 4
M  V30 4 1 4 5
M  V30 5 1 4 6 CFG=1
M  V30 6 1 5 7
M  V30 7 1 7 8
M  V30 8 1 8 9
M  V30 9 1 9 10
M  V30 10 1 9 11
M  V30 11 1 9 12
M  V30 END BOND
M  V30 BEGIN COLLECTION
M  V30 MDLV30/STERAC1 ATOMS=(1 4)
M  V30 END COLLECTION
M  V30 END CTAB
M  END
>  <Structure No>
134

>  <Molecule Name>
Hydroxycitronellal

>  <PubChem CID>
7888

>  <SMILES>
CC(CCCC(C)(C)O)CC=O

>  <InChIKey>
WPFVBOQKRVRMJB-VIFPVBQESA-N

>  <Molecular Formula>
C10H20O2

>  <Target Organism>
Aedes aegypti

>  <Reference DOI>
10.3390/toxics11100837

>  <Activity Label>
1

>  <Repellency>
Active

>  <IUPAC>
7-hydroxy-3,7-dimethyloctanal

>  <Common name>
Hydroxycitronellal

$$$$
Compound 135
     RDKit          2D

 12 11  0  0  0  0  0  0  0  0999 V2000
    0.0000    0.0000    0.0000 O   0  0  0  0  0  0  0  0  0  0  0  0
   -0.0364   -1.4698    0.0000 C   0  0  0  0  0  0  0  0  0  0  0  0
    1.2269   -2.2108    0.0000 C   0  0  0  0  0  0  0  0  0  0  0  0
   -1.3726   -2.2108    0.0000 C   0  0  0  0  0  0  0  0  0  0  0  0
    2.4902   -1.4334    0.0000 C   0  0  0  0  0  0  0  0  0  0  0  0
    1.1904   -3.6807    0.0000 C   0  0  0  0  0  0  0  0  0  0  0  0
   -2.7089   -1.4334    0.0000 C   0  0  0  0  0  0  0  0  0  0  0  0
    3.7536   -2.1744    0.0000 C   0  0  0  0  0  0  0  0  0  0  0  0
    2.4538    0.1093    0.0000 C   0  0  0  0  0  0  0  0  0  0  0  0
    2.4538   -4.4095    0.0000 O   0  0  0  0  0  0  0  0  0  0  0  0
   -2.7453    0.1093    0.0000 C   0  0  0  0  0  0  0  0  0  0  0  0
   -4.0451   -2.1744    0.0000 C   0  0  0  0  0  0  0  0  0  0  0  0
  1  2  1  0
  2  3  1  0
  2  4  1  0
  3  5  1  0
  3  6  1  0
  4  7  1  0
  5  8  1  0
  5  9  1  0
  6 10  1  0
  7 11  1  0
  7 12  1  0
M  END
>  <Structure No>
135

>  <Molecule Name>
5-Methyl-2-(propan-2-yl)hexane-1,3-diol

>  <PubChem CID>
13695602

>  <SMILES>
CC(C)CC(C(CO)C(C)C)O

>  <InChIKey>
DPMLASRBHSLDGP-UHFFFAOYSA-N

>  <Molecular Formula>
C10H22O2

>  <Target Organism>
Aedes aegypti

>  <Reference DOI>
10.3390/toxics11100837

>  <Activity Label>
1

>  <Repellency>
Active

>  <IUPAC>
5-methyl-2-propan-2-ylhexane-1,3-diol

>  <Common name>
5-Methyl-2-(propan-2-yl)hexane-1,3-diol

$$$$
Compound 136
     RDKit          2D

 12 11  0  0  0  0  0  0  0  0999 V2000
    0.0000    0.0000    0.0000 O   0  0  0  0  0  0  0  0  0  0  0  0
   -0.0359    1.5235    0.0000 C   0  0  0  0  0  0  0  0  0  0  0  0
   -1.3555    2.2793    0.0000 C   0  0  0  0  0  0  0  0  0  0  0  0
    1.2116    2.2793    0.0000 C   0  0  0  0  0  0  0  0  0  0  0  0
   -2.6752    1.5475    0.0000 C   0  0  0  0  0  0  0  0  0  0  0  0
   -0.6238    3.5989    0.0000 C   0  0  0  0  0  0  0  0  0  0  0  0
   -2.1233    3.5989    0.0000 C   0  0  0  0  0  0  0  0  0  0  0  0
    2.4592    1.5475    0.0000 C   0  0  0  0  0  0  0  0  0  0  0  0
    1.1756    3.8028    0.0000 C   0  0  0  0  0  0  0  0  0  0  0  0
   -2.7111    0.0959    0.0000 O   0  0  0  0  0  0  0  0  0  0  0  0
   -3.9948    2.3033    0.0000 C   0  0  0  0  0  0  0  0  0  0  0  0
   -5.3144    1.5715    0.0000 C   0  0  0  0  0  0  0  0  0  0  0  0
  1  2  1  0
  2  3  1  0
  2  4  1  0
  3  5  1  0
  3  6  1  0
  3  7  1  0
  4  8  1  0
  4  9  1  0
  5 10  1  0
  5 11  1  0
 11 12  1  0
M  END
>  <Structure No>
136

>  <Molecule Name>
2,4,4-Trimethylheptane-3,5-diol

>  <PubChem CID>
221283

>  <SMILES>
CCC(C(C)(C)C(C(C)C)O)O

>  <InChIKey>
UWFNGBBDWVEMRB-UHFFFAOYSA-N

>  <Molecular Formula>
C10H22O2

>  <Target Organism>
Aedes aegypti

>  <Reference DOI>
10.3390/toxics11100837

>  <Activity Label>
1

>  <Repellency>
Active

>  <IUPAC>
2,4,4-trimethylheptane-3,5-diol

>  <Common name>
2,4,4-Trimethylheptane-3,5-diol

$$$$
Compound 137
     RDKit          2D

 12 11  0  0  0  0  0  0  0  0999 V2000
    0.0000    0.0000    0.0000 O   0  0  0  0  0  0  0  0  0  0  0  0
   -0.0363   -1.4678    0.0000 C   0  0  0  0  0  0  0  0  0  0  0  0
    1.2252   -2.2078    0.0000 C   0  0  0  0  0  0  0  0  0  0  0  0
   -1.3708   -2.2078    0.0000 C   0  0  0  0  0  0  0  0  0  0  0  0
    2.4869   -1.4193    0.0000 C   0  0  0  0  0  0  0  0  0  0  0  0
    1.1888   -3.6757    0.0000 C   0  0  0  0  0  0  0  0  0  0  0  0
   -2.7052   -1.4193    0.0000 C   0  0  0  0  0  0  0  0  0  0  0  0
    2.4505    0.1213    0.0000 O   0  0  0  0  0  0  0  0  0  0  0  0
    3.7485   -2.1593    0.0000 C   0  0  0  0  0  0  0  0  0  0  0  0
   -0.1455   -4.4157    0.0000 C   0  0  0  0  0  0  0  0  0  0  0  0
   -4.0397   -2.1593    0.0000 C   0  0  0  0  0  0  0  0  0  0  0  0
    5.0102   -1.3829    0.0000 C   0  0  0  0  0  0  0  0  0  0  0  0
  1  2  1  0
  2  3  1  0
  2  4  1  0
  3  5  1  0
  3  6  1  0
  4  7  1  0
  5  8  1  0
  5  9  1  0
  6 10  1  0
  7 11  1  0
  9 12  1  0
M  END
>  <Structure No>
137

>  <Molecule Name>
4-Ethyl-3,5-octanediol

>  <PubChem CID>
20312665

>  <SMILES>
CCCC(C(CC)C(CC)O)O

>  <InChIKey>
AWHGGADKAVSZDQ-UHFFFAOYSA-N

>  <Molecular Formula>
C10H22O2

>  <Target Organism>
Aedes aegypti

>  <Reference DOI>
10.3390/toxics11100837

>  <Activity Label>
1

>  <Repellency>
Active

>  <IUPAC>
4-ethyloctane-3,5-diol

>  <Common name>
4-Ethyl-3,5-octanediol

$$$$
Compound 138
     RDKit          2D

 12 11  0  0  0  0  0  0  0  0999 V2000
    0.0000    0.0000    0.0000 O   0  0  0  0  0  0  0  0  0  0  0  0
   -0.0740    1.5678    0.0000 C   0  0  0  0  0  0  0  0  0  0  0  0
    1.1357    2.3579    0.0000 C   0  0  0  0  0  0  0  0  0  0  0  0
   -1.4320    2.3579    0.0000 C   0  0  0  0  0  0  0  0  0  0  0  0
    2.3456    1.6419    0.0000 C   0  0  0  0  0  0  0  0  0  0  0  0
   -2.7900    1.6419    0.0000 C   0  0  0  0  0  0  0  0  0  0  0  0
    3.5554    2.4320    0.0000 C   0  0  0  0  0  0  0  0  0  0  0  0
   -4.1480    2.4320    0.0000 C   0  0  0  0  0  0  0  0  0  0  0  0
    4.7653    1.7160    0.0000 C   0  0  0  0  0  0  0  0  0  0  0  0
   -5.5060    1.7160    0.0000 C   0  0  0  0  0  0  0  0  0  0  0  0
    5.9751    2.5061    0.0000 C   0  0  0  0  0  0  0  0  0  0  0  0
   -6.8640    2.5061    0.0000 C   0  0  0  0  0  0  0  0  0  0  0  0
  1  2  2  0
  2  3  1  0
  2  4  1  0
  3  5  1  0
  4  6  1  0
  5  7  1  0
  6  8  1  0
  7  9  1  0
  8 10  1  0
  9 11  1  0
 10 12  1  0
M  END
>  <Structure No>
138

>  <Molecule Name>
6-Undecanone

>  <PubChem CID>
13561

>  <SMILES>
CCCCCC(CCCCC)=O

>  <InChIKey>
ZPQAKYPOZRXKFA-UHFFFAOYSA-N

>  <Molecular Formula>
C11H22O

>  <Target Organism>
Aedes albopictus

>  <Reference DOI>
10.1021/acs.jafc.2c05537

>  <Activity Label>
1

>  <Repellency>
Active

>  <IUPAC>
undecan-6-one

>  <Common name>
6-Undecanone

$$$$
Compound 139
     RDKit          2D

 12 11  0  0  0  0  0  0  0  0999 V2000
    0.0000    0.0000    0.0000 O   0  0  0  0  0  0  0  0  0  0  0  0
   -0.0763    1.6152    0.0000 C   0  0  0  0  0  0  0  0  0  0  0  0
    1.1701    2.4419    0.0000 C   0  0  0  0  0  0  0  0  0  0  0  0
   -1.4753    2.4419    0.0000 C   0  0  0  0  0  0  0  0  0  0  0  0
    2.4165    1.7043    0.0000 C   0  0  0  0  0  0  0  0  0  0  0  0
    3.6629    2.5310    0.0000 C   0  0  0  0  0  0  0  0  0  0  0  0
    4.9094    1.7933    0.0000 C   0  0  0  0  0  0  0  0  0  0  0  0
    6.1558    2.6200    0.0000 C   0  0  0  0  0  0  0  0  0  0  0  0
    7.4022    1.8823    0.0000 C   0  0  0  0  0  0  0  0  0  0  0  0
    8.6487    2.6963    0.0000 C   0  0  0  0  0  0  0  0  0  0  0  0
    9.8951    1.9586    0.0000 C   0  0  0  0  0  0  0  0  0  0  0  0
   11.1415    2.7726    0.0000 C   0  0  0  0  0  0  0  0  0  0  0  0
  1  2  2  0
  2  3  1  0
  2  4  1  0
  3  5  1  0
  5  6  1  0
  6  7  1  0
  7  8  1  0
  8  9  1  0
  9 10  1  0
 10 11  1  0
 11 12  1  0
M  END
>  <Structure No>
139

>  <Molecule Name>
2-Undecanone

>  <PubChem CID>
8163

>  <SMILES>
CCCCCCCCCC(C)=O

>  <InChIKey>
KYWIYKKSMDLRDC-UHFFFAOYSA-N

>  <Molecular Formula>
C11H22O

>  <Target Organism>
Aedes albopictus

>  <Reference DOI>
10.1021/acs.jafc.2c05537

>  <Activity Label>
1

>  <Repellency>
Active

>  <IUPAC>
undecan-2-one

>  <Common name>
2-Undecanone

$$$$
Compound 140
     RDKit          2D

 12 11  0  0  0  0  0  0  0  0999 V2000
    0.0000    0.0000    0.0000 S   0  0  0  0  0  0  0  0  0  0  0  0
   -1.3949    0.8018    0.0000 C   0  0  0  0  0  0  0  0  0  0  0  0
    1.2631    0.8018    0.0000 C   0  0  0  0  0  0  0  0  0  0  0  0
   -2.7898    0.1208    0.0000 C   0  0  0  0  0  0  0  0  0  0  0  0
    2.5262    0.1208    0.0000 C   0  0  0  0  0  0  0  0  0  0  0  0
   -4.1848    0.9226    0.0000 O   0  0  0  0  0  0  0  0  0  0  0  0
    3.7893    0.9226    0.0000 C   0  0  0  0  0  0  0  0  0  0  0  0
    5.0525    0.2416    0.0000 C   0  0  0  0  0  0  0  0  0  0  0  0
    6.3156    1.0434    0.0000 C   0  0  0  0  0  0  0  0  0  0  0  0
    7.5787    0.3514    0.0000 C   0  0  0  0  0  0  0  0  0  0  0  0
    8.8419    1.1532    0.0000 C   0  0  0  0  0  0  0  0  0  0  0  0
   10.1050    0.4723    0.0000 C   0  0  0  0  0  0  0  0  0  0  0  0
  1  2  1  0
  1  3  1  0
  2  4  1  0
  3  5  1  0
  4  6  1  0
  5  7  1  0
  7  8  1  0
  8  9  1  0
  9 10  1  0
 10 11  1  0
 11 12  1  0
M  END
>  <Structure No>
140

>  <Molecule Name>
2-(Octylthio)ethanol

>  <PubChem CID>
19079

>  <SMILES>
CCCCCCCCSCCO

>  <InChIKey>
KXPXKNBDCUOENF-UHFFFAOYSA-N

>  <Molecular Formula>
C10H22OS

>  <Target Organism>
Acyrthosiphon pisum

>  <Reference DOI>
10.1007/978-3-662-03656-3_22

>  <Activity Label>
1

>  <Repellency>
Active

>  <IUPAC>
2-octylsulfanylethanol

>  <Common name>
2-(Octylthio)ethanol

$$$$
Compound 141
     RDKit          2D

 12 11  0  0  0  0  0  0  0  0999 V2000
    0.0000    0.0000    0.0000 O   0  0  0  0  0  0  0  0  0  0  0  0
   -0.0346   -1.4652    0.0000 C   0  0  0  0  0  0  0  0  0  0  0  0
   -1.3729   -2.1921    0.0000 O   0  0  0  0  0  0  0  0  0  0  0  0
    1.2345   -2.1921    0.0000 C   0  0  0  0  0  0  0  0  0  0  0  0
   -2.7113   -1.3960    0.0000 C   0  0  0  0  0  0  0  0  0  0  0  0
    2.5036   -1.3960    0.0000 C   0  0  0  0  0  0  0  0  0  0  0  0
   -4.0497   -2.0998    0.0000 C   0  0  0  0  0  0  0  0  0  0  0  0
    3.7728   -2.0998    0.0000 C   0  0  0  0  0  0  0  0  0  0  0  0
   -5.3881   -1.3037    0.0000 C   0  0  0  0  0  0  0  0  0  0  0  0
    5.0420   -1.3037    0.0000 C   0  0  0  0  0  0  0  0  0  0  0  0
   -6.7265   -2.0191    0.0000 O   0  0  0  0  0  0  0  0  0  0  0  0
    6.3111   -2.0191    0.0000 C   0  0  0  0  0  0  0  0  0  0  0  0
  1  2  2  0
  2  3  1  0
  2  4  1  0
  3  5  1  0
  4  6  1  0
  5  7  1  0
  6  8  1  0
  7  9  1  0
  8 10  1  0
  9 11  1  0
 10 12  1  0
M  END
>  <Structure No>
141

>  <Molecule Name>
Caproic acid, 3-hydroxypropyl ester

>  <PubChem CID>
243665

>  <SMILES>
CCCCCC(OCCCO)=O

>  <InChIKey>
WABLATSSBBFMIL-UHFFFAOYSA-N

>  <Molecular Formula>
C9H18O3

>  <Target Organism>
Aedes aegypti

>  <Reference DOI>
10.3390/toxics11100837

>  <Activity Label>
1

>  <Repellency>
Active

>  <IUPAC>
3-hydroxypropyl hexanoate

>  <Common name>
Caproic acid, 3-hydroxypropyl ester

$$$$
Compound 142
     RDKit          2D

  0  0  0  0  0  0  0  0  0  0999 V3000
M  V30 BEGIN CTAB
M  V30 COUNTS 12 11 0 0 0
M  V30 BEGIN ATOM
M  V30 1 O 0.000000 0.000000 0.000000 0
M  V30 2 C 1.255800 0.799100 0.000000 0
M  V30 3 C -1.324300 0.799100 0.000000 0
M  V30 4 C 2.511600 0.079900 0.000000 0
M  V30 5 C -2.648600 0.079900 0.000000 0
M  V30 6 O 2.477400 -1.370000 0.000000 0
M  V30 7 C 3.767500 0.879000 0.000000 0
M  V30 8 C -3.973000 0.879000 0.000000 0
M  V30 9 O 5.023300 0.148400 0.000000 0
M  V30 10 C -5.297300 0.148400 0.000000 0
M  V30 11 C -6.621600 0.947500 0.000000 0
M  V30 12 C -7.946000 0.216900 0.000000 0
M  V30 END ATOM
M  V30 BEGIN BOND
M  V30 1 1 1 2
M  V30 2 1 1 3
M  V30 3 1 2 4
M  V30 4 1 3 5
M  V30 5 1 4 6 CFG=3
M  V30 6 1 4 7
M  V30 7 1 5 8
M  V30 8 1 7 9
M  V30 9 1 8 10
M  V30 10 1 10 11
M  V30 11 1 11 12
M  V30 END BOND
M  V30 BEGIN COLLECTION
M  V30 MDLV30/STERAC1 ATOMS=(1 4)
M  V30 END COLLECTION
M  V30 END CTAB
M  END
>  <Structure No>
142

>  <Molecule Name>
3-Hexyloxypropylene glycol

>  <PubChem CID>
11229094

>  <SMILES>
CCCCCCOCC(CO)O

>  <InChIKey>
MQVMITUCTLYRNV-VIFPVBQESA-N

>  <Molecular Formula>
C9H20O3

>  <Target Organism>
Aedes aegypti

>  <Reference DOI>
10.3390/toxics11100837

>  <Activity Label>
1

>  <Repellency>
Active

>  <IUPAC>
3-hexoxypropane-1,2-diol

>  <Common name>
3-Hexyloxypropylene glycol

$$$$
Compound 143
     RDKit          2D

 12 11  0  0  0  0  0  0  0  0999 V2000
    0.0000    0.0000    0.0000 Cl  0  0  0  0  0  0  0  0  0  0  0  0
   -1.3159   -0.7297    0.0000 C   0  0  0  0  0  0  0  0  0  0  0  0
   -2.6319    0.0239    0.0000 C   0  0  0  0  0  0  0  0  0  0  0  0
   -2.6678    1.5432    0.0000 O   0  0  0  0  0  0  0  0  0  0  0  0
   -3.9479   -0.6938    0.0000 O   0  0  0  0  0  0  0  0  0  0  0  0
   -5.2638    0.0598    0.0000 C   0  0  0  0  0  0  0  0  0  0  0  0
   -6.5798   -0.6699    0.0000 C   0  0  0  0  0  0  0  0  0  0  0  0
   -7.8958    0.0837    0.0000 N   0  0  0  0  0  0  0  0  0  0  0  0
   -7.3455   -1.9141    0.0000 C   0  0  0  0  0  0  0  0  0  0  0  0
   -5.8500   -1.9141    0.0000 C   0  0  0  0  0  0  0  0  0  0  0  0
   -7.9317    1.6030    0.0000 O   0  0  0  0  0  0  0  0  0  0  0  0
   -9.2118   -0.6340    0.0000 O   0  0  0  0  0  0  0  0  0  0  0  0
  1  2  1  0
  2  3  1  0
  3  4  2  0
  3  5  1  0
  5  6  1  0
  6  7  1  0
  7  8  1  0
  7  9  1  0
  7 10  1  0
  8 11  2  0
  8 12  1  0
M  CHG  2   8   1  12  -1
M  END
>  <Structure No>
143

>  <Molecule Name>
beta-Diethylaminocrotonic acid, methyl ester

>  <PubChem CID>
154346602

>  <SMILES>
CC(C)(COC(CCl)=O)[N+]([O-])=O

>  <InChIKey>
TYKRYWSLMKDDAU-UHFFFAOYSA-N

>  <Molecular Formula>
C6H10NO4Cl

>  <Target Organism>
Aedes aegypti

>  <Reference DOI>
10.3390/toxics11100837

>  <Activity Label>
1

>  <Repellency>
Active

>  <IUPAC>
(2-methyl-2-nitropropyl) 2-chloroacetate

>  <Common name>
beta-Diethylaminocrotonic acid, methyl ester

$$$$
Compound 144
     RDKit          2D

 12 11  0  0  0  0  0  0  0  0999 V2000
    0.0000    0.0000    0.0000 O   0  0  0  0  0  0  0  0  0  0  0  0
    1.2755   -0.7359    0.0000 C   0  0  0  0  0  0  0  0  0  0  0  0
    2.5511    0.0490    0.0000 O   0  0  0  0  0  0  0  0  0  0  0  0
    1.2387   -2.2199    0.0000 C   0  0  0  0  0  0  0  0  0  0  0  0
    2.5143    1.6067    0.0000 C   0  0  0  0  0  0  0  0  0  0  0  0
    2.5143   -2.9681    0.0000 C   0  0  0  0  0  0  0  0  0  0  0  0
    3.7898   -2.1831    0.0000 N   0  0  0  0  0  0  0  0  0  0  0  0
    2.4775   -4.4522    0.0000 C   0  0  0  0  0  0  0  0  0  0  0  0
    5.0654   -2.9313    0.0000 C   0  0  0  0  0  0  0  0  0  0  0  0
    3.7530   -0.6255    0.0000 C   0  0  0  0  0  0  0  0  0  0  0  0
    6.3410   -2.1463    0.0000 C   0  0  0  0  0  0  0  0  0  0  0  0
    5.0286    0.1471    0.0000 C   0  0  0  0  0  0  0  0  0  0  0  0
  1  2  2  0
  2  3  1  0
  2  4  1  0
  3  5  1  0
  4  6  2  0
  6  7  1  0
  6  8  1  0
  7  9  1  0
  7 10  1  0
  9 11  1  0
 10 12  1  0
M  END
>  <Structure No>
144

>  <Molecule Name>
beta-Diethylaminocrotonic acid, methyl ester

>  <PubChem CID>
Not found

>  <SMILES>
CCN(CC)/C(\C)=C\C(OC)=O

>  <InChIKey>
RNINAAOLDKBHIH-FPLPWBNLSA-N

>  <Molecular Formula>
C9H17NO2

>  <Target Organism>
Aedes aegypti

>  <Reference DOI>
10.3390/toxics11100837

>  <Activity Label>
1

>  <Repellency>
Active

>  <IUPAC>


>  <Common name>
beta-Diethylaminocrotonic acid, methyl ester

$$$$
Compound 145
     RDKit          2D

 13 12  0  0  0  0  0  0  0  0999 V2000
    0.0000    0.0000    0.0000 O   0  0  0  0  0  0  0  0  0  0  0  0
   -0.0350   -1.4837    0.0000 C   0  0  0  0  0  0  0  0  0  0  0  0
   -1.3902   -2.1964    0.0000 O   0  0  0  0  0  0  0  0  0  0  0  0
    1.2500   -2.1964    0.0000 C   0  0  0  0  0  0  0  0  0  0  0  0
    2.5352   -1.3902    0.0000 C   0  0  0  0  0  0  0  0  0  0  0  0
    3.8203   -2.1029    0.0000 C   0  0  0  0  0  0  0  0  0  0  0  0
    5.1054   -1.2968    0.0000 C   0  0  0  0  0  0  0  0  0  0  0  0
    6.3906   -2.0445    0.0000 C   0  0  0  0  0  0  0  0  0  0  0  0
    7.6757   -1.2383    0.0000 C   0  0  0  0  0  0  0  0  0  0  0  0
    8.9608   -1.9861    0.0000 C   0  0  0  0  0  0  0  0  0  0  0  0
   10.2459   -1.1799    0.0000 C   0  0  0  0  0  0  0  0  0  0  0  0
   11.5311   -1.9276    0.0000 C   0  0  0  0  0  0  0  0  0  0  0  0
   12.8162   -1.1215    0.0000 C   0  0  0  0  0  0  0  0  0  0  0  0
  1  2  2  0
  2  3  1  0
  2  4  1  0
  4  5  1  0
  5  6  1  0
  6  7  1  0
  7  8  1  0
  8  9  1  0
  9 10  1  0
 10 11  1  0
 11 12  1  0
 12 13  2  0
M  END
>  <Structure No>
145

>  <Molecule Name>
Undecylenic Acid

>  <PubChem CID>
5634

>  <SMILES>
C=CCCCCCCCCC(O)=O

>  <InChIKey>
FRPZMMHWLSIFAZ-UHFFFAOYSA-N

>  <Molecular Formula>
C11H20O2

>  <Target Organism>
Aedes aegypti

>  <Reference DOI>
10.3390/toxics11100837

>  <Activity Label>
1

>  <Repellency>
Active

>  <IUPAC>
undec-10-enoic acid

>  <Common name>
Undecylenic Acid

$$$$
Compound 146
     RDKit          2D

 13 12  0  0  0  0  0  0  0  0999 V2000
    0.0000    0.0000    0.0000 O   0  0  0  0  0  0  0  0  0  0  0  0
   -1.2967   -0.7544    0.0000 C   0  0  0  0  0  0  0  0  0  0  0  0
   -1.2967   -2.2516    0.0000 O   0  0  0  0  0  0  0  0  0  0  0  0
   -2.5934    0.0000    0.0000 C   0  0  0  0  0  0  0  0  0  0  0  0
   -3.8902   -0.7544    0.0000 C   0  0  0  0  0  0  0  0  0  0  0  0
   -5.1869    0.0000    0.0000 C   0  0  0  0  0  0  0  0  0  0  0  0
   -6.4837   -0.7544    0.0000 C   0  0  0  0  0  0  0  0  0  0  0  0
   -7.7804    0.0000    0.0000 C   0  0  0  0  0  0  0  0  0  0  0  0
   -9.0772   -0.7544    0.0000 C   0  0  0  0  0  0  0  0  0  0  0  0
  -10.3739    0.0000    0.0000 C   0  0  0  0  0  0  0  0  0  0  0  0
  -11.6707   -0.7544    0.0000 C   0  0  0  0  0  0  0  0  0  0  0  0
  -12.9674    0.0000    0.0000 C   0  0  0  0  0  0  0  0  0  0  0  0
  -14.2642   -0.7544    0.0000 C   0  0  0  0  0  0  0  0  0  0  0  0
  1  2  2  0
  2  3  1  0
  2  4  1  0
  4  5  1  0
  5  6  1  0
  6  7  1  0
  7  8  1  0
  8  9  1  0
  9 10  1  0
 10 11  1  0
 11 12  1  0
 12 13  1  0
M  END
>  <Structure No>
146

>  <Molecule Name>
Undecanoic Acid; undecanoic acid

>  <PubChem CID>
8180

>  <SMILES>
CCCCCCCCCCC(O)=O; CCCCCCCCCCC(=O)O

>  <InChIKey>
ZDPHROOEEOARMN-UHFFFAOYSA-N

>  <Molecular Formula>
C11H22O2

>  <Target Organism>
Aedes aegypti

>  <Reference DOI>
10.1002/ps.5994; 10.1021/jf300101w

>  <Activity Label>
1

>  <Repellency>
Active

>  <IUPAC>
undecanoic acid

>  <Common name>
Undecanoic Acid; undecanoic acid

$$$$
Compound 147
     RDKit          2D

 13 12  0  0  0  0  0  0  0  0999 V2000
    0.0000    0.0000    0.0000 O   0  0  0  0  0  0  0  0  0  0  0  0
   -0.0363   -1.4653    0.0000 C   0  0  0  0  0  0  0  0  0  0  0  0
   -1.3684   -2.2040    0.0000 C   0  0  0  0  0  0  0  0  0  0  0  0
    1.2231   -2.2040    0.0000 C   0  0  0  0  0  0  0  0  0  0  0  0
   -2.7005   -1.4290    0.0000 C   0  0  0  0  0  0  0  0  0  0  0  0
   -2.1435   -3.4635    0.0000 C   0  0  0  0  0  0  0  0  0  0  0  0
   -0.6297   -3.4635    0.0000 C   0  0  0  0  0  0  0  0  0  0  0  0
    2.4825   -1.4290    0.0000 C   0  0  0  0  0  0  0  0  0  0  0  0
    1.1868   -3.6693    0.0000 C   0  0  0  0  0  0  0  0  0  0  0  0
   -2.7369    0.1089    0.0000 O   0  0  0  0  0  0  0  0  0  0  0  0
   -4.0326   -2.1677    0.0000 C   0  0  0  0  0  0  0  0  0  0  0  0
   -5.3648   -1.3926    0.0000 C   0  0  0  0  0  0  0  0  0  0  0  0
   -6.6969   -2.1313    0.0000 C   0  0  0  0  0  0  0  0  0  0  0  0
  1  2  1  0
  2  3  1  0
  2  4  1  0
  3  5  1  0
  3  6  1  0
  3  7  1  0
  4  8  1  0
  4  9  1  0
  5 10  1  0
  5 11  1  0
 11 12  1  0
 12 13  1  0
M  END
>  <Structure No>
147

>  <Molecule Name>
2,4,4-Trimethyloctane-3,5-diol

>  <PubChem CID>
153826087

>  <SMILES>
CCCC(C(C)(C)C(C(C)C)O)O

>  <InChIKey>
SJCJMYJGMCMQQD-UHFFFAOYSA-N

>  <Molecular Formula>
C11H24O2

>  <Target Organism>
Aedes aegypti

>  <Reference DOI>
10.3390/toxics11100837

>  <Activity Label>
1

>  <Repellency>
Active

>  <IUPAC>
2,4,4-trimethyloctane-3,5-diol

>  <Common name>
2,4,4-Trimethyloctane-3,5-diol

$$$$
Compound 148
     RDKit          2D

 13 12  0  0  0  0  0  0  0  0999 V2000
    0.0000    0.0000    0.0000 O   0  0  0  0  0  0  0  0  0  0  0  0
    1.2729    0.8519    0.0000 C   0  0  0  0  0  0  0  0  0  0  0  0
    2.5458    0.1202    0.0000 C   0  0  0  0  0  0  0  0  0  0  0  0
    3.8188    0.9722    0.0000 C   0  0  0  0  0  0  0  0  0  0  0  0
    5.0917    0.2405    0.0000 C   0  0  0  0  0  0  0  0  0  0  0  0
    6.3647    1.0925    0.0000 C   0  0  0  0  0  0  0  0  0  0  0  0
    7.6376    0.3608    0.0000 C   0  0  0  0  0  0  0  0  0  0  0  0
    8.9106    1.2128    0.0000 C   0  0  0  0  0  0  0  0  0  0  0  0
   10.1835    0.4811    0.0000 C   0  0  0  0  0  0  0  0  0  0  0  0
   11.4565    1.3330    0.0000 C   0  0  0  0  0  0  0  0  0  0  0  0
   12.7294    0.6013    0.0000 C   0  0  0  0  0  0  0  0  0  0  0  0
   14.0024    1.4533    0.0000 C   0  0  0  0  0  0  0  0  0  0  0  0
   15.2753    0.7216    0.0000 C   0  0  0  0  0  0  0  0  0  0  0  0
  1  2  2  0
  2  3  1  0
  3  4  1  0
  4  5  1  0
  5  6  1  0
  6  7  1  0
  7  8  1  0
  8  9  1  0
  9 10  1  0
 10 11  1  0
 11 12  1  0
 12 13  1  0
M  END
>  <Structure No>
148

>  <Molecule Name>
Dodecanal

>  <PubChem CID>
8194

>  <SMILES>
CCCCCCCCCCCC=O

>  <InChIKey>
HFJRKMMYBMWEAD-UHFFFAOYSA-N

>  <Molecular Formula>
C12H24O

>  <Target Organism>
Aedes albopictus

>  <Reference DOI>
10.1021/acs.jafc.2c05537

>  <Activity Label>
1

>  <Repellency>
Active

>  <IUPAC>
dodecanal

>  <Common name>
Dodecanal

$$$$
Compound 149
     RDKit          2D

  0  0  0  0  0  0  0  0  0  0999 V3000
M  V30 BEGIN CTAB
M  V30 COUNTS 13 12 0 0 0
M  V30 BEGIN ATOM
M  V30 1 O 0.000000 0.000000 0.000000 0
M  V30 2 C 1.250900 0.769800 0.000000 0
M  V30 3 C 1.214800 2.297400 0.000000 0
M  V30 4 C 2.465800 3.067200 0.000000 0
M  V30 5 C -0.108200 3.067200 0.000000 0
M  V30 6 C 1.178700 3.825000 0.000000 0
M  V30 7 C 3.716700 2.333500 0.000000 0
M  V30 8 C -1.431300 2.333500 0.000000 0
M  V30 9 C -0.144300 4.594800 0.000000 0
M  V30 10 C 4.967700 3.103300 0.000000 0
M  V30 11 C -2.754500 3.103300 0.000000 0
M  V30 12 N 6.218700 3.873100 0.000000 0
M  V30 13 C -4.077600 2.369600 0.000000 0
M  V30 END ATOM
M  V30 BEGIN BOND
M  V30 1 2 1 2
M  V30 2 1 2 3
M  V30 3 1 3 4 CFG=1
M  V30 4 1 3 5
M  V30 5 1 3 6
M  V30 6 1 4 7
M  V30 7 1 5 8
M  V30 8 1 6 9
M  V30 9 1 7 10
M  V30 10 1 8 11
M  V30 11 3 10 12
M  V30 12 1 11 13
M  V30 END BOND
M  V30 BEGIN COLLECTION
M  V30 MDLV30/STERAC1 ATOMS=(1 3)
M  V30 END COLLECTION
M  V30 END CTAB
M  END
>  <Structure No>
149

>  <Molecule Name>
4-Ethyl-4-formyloctanenitrile

>  <PubChem CID>
220544

>  <SMILES>
CCCCC(CC)(CCC#N)C=O

>  <InChIKey>
KBJKNUWIYZFLGT-NSHDSACASA-N

>  <Molecular Formula>
C11H19NO

>  <Target Organism>
Aedes aegypti

>  <Reference DOI>
10.3390/toxics11100837

>  <Activity Label>
1

>  <Repellency>
Active

>  <IUPAC>
4-ethyl-4-formyloctanenitrile

>  <Common name>
4-Ethyl-4-formyloctanenitrile

$$$$
Compound 150
     RDKit          2D

 13 14  0  0  0  0  0  0  0  0999 V2000
    0.0000    0.0000    0.0000 O   0  0  0  0  0  0  0  0  0  0  0  0
    1.2759    0.7729    0.0000 C   0  0  0  0  0  0  0  0  0  0  0  0
    2.5518    0.0245    0.0000 C   0  0  0  0  0  0  0  0  0  0  0  0
    1.2391    2.3310    0.0000 C   0  0  0  0  0  0  0  0  0  0  0  0
    3.8277    0.7974    0.0000 C   0  0  0  0  0  0  0  0  0  0  0  0
    2.5150   -1.4599    0.0000 C   0  0  0  0  0  0  0  0  0  0  0  0
    2.5150    3.1161    0.0000 C   0  0  0  0  0  0  0  0  0  0  0  0
    5.1036    0.0490    0.0000 C   0  0  0  0  0  0  0  0  0  0  0  0
    3.7909    2.3555    0.0000 C   0  0  0  0  0  0  0  0  0  0  0  0
    3.7909   -2.1960    0.0000 C   0  0  0  0  0  0  0  0  0  0  0  0
    1.1655   -2.1960    0.0000 C   0  0  0  0  0  0  0  0  0  0  0  0
    5.0668   -1.4354    0.0000 C   0  0  0  0  0  0  0  0  0  0  0  0
    6.3796    0.8219    0.0000 C   0  0  0  0  0  0  0  0  0  0  0  0
  1  2  2  0
  2  3  1  0
  2  4  1  0
  3  5  2  0
  3  6  1  0
  4  7  1  0
  5  8  1  0
  5  9  1  0
  6 10  2  0
  6 11  1  0
  8 12  2  0
  8 13  1  0
  7  9  1  0
 10 12  1  0
M  END
>  <Structure No>
150

>  <Molecule Name>
1(2H)-Naphthalenone, 3,4-dihydro-5,8-dimethyl-

>  <PubChem CID>
99334

>  <SMILES>
Cc1ccc(C)c2c1CCCC2=O

>  <InChIKey>
ZSMGKPHICFZGQU-UHFFFAOYSA-N

>  <Molecular Formula>
C12H14O

>  <Target Organism>
Aedes aegypti

>  <Reference DOI>
10.3390/toxics11100837

>  <Activity Label>
1

>  <Repellency>
Active

>  <IUPAC>
5,8-dimethyl-3,4-dihydro-2H-naphthalen-1-one

>  <Common name>
1(2H)-Naphthalenone, 3,4-dihydro-5,8-dimethyl-

$$$$
Compound 151
     RDKit          2D

 13 14  0  0  0  0  0  0  0  0999 V2000
    0.0000    0.0000    0.0000 O   0  0  0  0  0  0  0  0  0  0  0  0
   -0.0367   -1.4804    0.0000 C   0  0  0  0  0  0  0  0  0  0  0  0
    1.2357   -2.2267    0.0000 C   0  0  0  0  0  0  0  0  0  0  0  0
   -1.3825   -2.2145    0.0000 C   0  0  0  0  0  0  0  0  0  0  0  0
    2.5081   -1.4437    0.0000 C   0  0  0  0  0  0  0  0  0  0  0  0
    1.1990   -3.7071    0.0000 C   0  0  0  0  0  0  0  0  0  0  0  0
   -1.4192   -3.6949    0.0000 C   0  0  0  0  0  0  0  0  0  0  0  0
    3.7805   -2.1900    0.0000 C   0  0  0  0  0  0  0  0  0  0  0  0
    2.4714    0.1101    0.0000 C   0  0  0  0  0  0  0  0  0  0  0  0
   -0.1468   -4.4412    0.0000 C   0  0  0  0  0  0  0  0  0  0  0  0
    5.0530   -1.4070    0.0000 C   0  0  0  0  0  0  0  0  0  0  0  0
    3.7438    0.8931    0.0000 C   0  0  0  0  0  0  0  0  0  0  0  0
    5.0163    0.1468    0.0000 C   0  0  0  0  0  0  0  0  0  0  0  0
  1  2  1  0
  2  3  1  0
  2  4  1  0
  3  5  1  0
  3  6  1  0
  4  7  1  0
  5  8  2  0
  5  9  1  0
  6 10  1  0
  8 11  1  0
  9 12  2  0
 11 13  2  0
  7 10  1  0
 12 13  1  0
M  END
>  <Structure No>
151

>  <Molecule Name>
2-Phenylcyclohexanol

>  <PubChem CID>
15046

>  <SMILES>
OC(CCCC1)C1c1ccccc1

>  <InChIKey>
AAIBYZBZXNWTPP-UHFFFAOYSA-N

>  <Molecular Formula>
C12H16O

>  <Target Organism>
Aedes aegypti

>  <Reference DOI>
10.3390/toxics11100837

>  <Activity Label>
1

>  <Repellency>
Active

>  <IUPAC>
2-phenylcyclohexan-1-ol

>  <Common name>
2-Phenylcyclohexanol

$$$$
Compound 152
     RDKit          2D

 13 14  0  0  0  0  0  0  0  0999 V2000
    0.0000    0.0000    0.0000 O   0  0  0  0  0  0  0  0  0  0  0  0
   -0.0367   -1.4804    0.0000 C   0  0  0  0  0  0  0  0  0  0  0  0
    1.2357   -2.2267    0.0000 C   0  0  0  0  0  0  0  0  0  0  0  0
   -1.3825   -2.2145    0.0000 C   0  0  0  0  0  0  0  0  0  0  0  0
    2.5081   -1.4437    0.0000 C   0  0  0  0  0  0  0  0  0  0  0  0
    1.1990   -3.7071    0.0000 C   0  0  0  0  0  0  0  0  0  0  0  0
   -1.4192   -3.6949    0.0000 C   0  0  0  0  0  0  0  0  0  0  0  0
    3.7805   -2.1900    0.0000 C   0  0  0  0  0  0  0  0  0  0  0  0
    2.4714    0.1101    0.0000 C   0  0  0  0  0  0  0  0  0  0  0  0
   -0.1468   -4.4412    0.0000 C   0  0  0  0  0  0  0  0  0  0  0  0
    5.0530   -1.4070    0.0000 C   0  0  0  0  0  0  0  0  0  0  0  0
    3.7438    0.8931    0.0000 C   0  0  0  0  0  0  0  0  0  0  0  0
    5.0163    0.1468    0.0000 C   0  0  0  0  0  0  0  0  0  0  0  0
  1  2  1  0
  2  3  1  0
  2  4  1  0
  3  5  1  0
  3  6  1  0
  4  7  1  0
  5  8  2  0
  5  9  1  0
  6 10  1  0
  8 11  1  0
  9 12  1  0
 11 13  1  0
  7 10  1  0
 12 13  1  0
M  END
>  <Structure No>
152

>  <Molecule Name>
2-(Cyclohexen-1-yl)cyclohexan-1-ol

>  <PubChem CID>
2771870

>  <SMILES>
OC(CCCC1)C1C1=CCCCC1

>  <InChIKey>
AWDPUMYRKBQMIL-UHFFFAOYSA-N

>  <Molecular Formula>
C12H20O

>  <Target Organism>
Aedes aegypti

>  <Reference DOI>
10.3390/toxics11100837

>  <Activity Label>
1

>  <Repellency>
Active

>  <IUPAC>
2-(cyclohexen-1-yl)cyclohexan-1-ol

>  <Common name>
2-(Cyclohexen-1-yl)cyclohexan-1-ol

$$$$
Compound 153
     RDKit          2D

 13 14  0  0  0  0  0  0  0  0999 V2000
    0.0000    0.0000    0.0000 O   0  0  0  0  0  0  0  0  0  0  0  0
   -0.0367   -1.4804    0.0000 C   0  0  0  0  0  0  0  0  0  0  0  0
    1.2357   -2.2267    0.0000 C   0  0  0  0  0  0  0  0  0  0  0  0
   -1.3825   -2.2145    0.0000 C   0  0  0  0  0  0  0  0  0  0  0  0
    2.5081   -1.4437    0.0000 C   0  0  0  0  0  0  0  0  0  0  0  0
    1.1990   -3.7071    0.0000 C   0  0  0  0  0  0  0  0  0  0  0  0
   -1.4192   -3.6949    0.0000 C   0  0  0  0  0  0  0  0  0  0  0  0
    3.7805   -2.1900    0.0000 C   0  0  0  0  0  0  0  0  0  0  0  0
    2.4714    0.1101    0.0000 C   0  0  0  0  0  0  0  0  0  0  0  0
   -0.1468   -4.4412    0.0000 C   0  0  0  0  0  0  0  0  0  0  0  0
    5.0530   -1.4070    0.0000 C   0  0  0  0  0  0  0  0  0  0  0  0
    3.7438    0.8931    0.0000 C   0  0  0  0  0  0  0  0  0  0  0  0
    5.0163    0.1468    0.0000 C   0  0  0  0  0  0  0  0  0  0  0  0
  1  2  1  0
  2  3  1  0
  2  4  1  0
  3  5  1  0
  3  6  1  0
  4  7  1  0
  5  8  1  0
  5  9  1  0
  6 10  1  0
  8 11  1  0
  9 12  1  0
 11 13  1  0
  7 10  1  0
 12 13  1  0
M  END
>  <Structure No>
153

>  <Molecule Name>
2-Cyclohexylcyclohexanol

>  <PubChem CID>
94327

>  <SMILES>
OC(CCCC1)C1C1CCCCC1

>  <InChIKey>
YTWWBKKPWACPPB-UHFFFAOYSA-N

>  <Molecular Formula>
C12H22O

>  <Target Organism>
Aedes aegypti

>  <Reference DOI>
10.3390/toxics11100837

>  <Activity Label>
1

>  <Repellency>
Active

>  <IUPAC>
2-cyclohexylcyclohexan-1-ol

>  <Common name>
2-Cyclohexylcyclohexanol

$$$$
Compound 154
     RDKit          2D

 13 14  0  0  0  0  0  0  0  0999 V2000
    0.0000    0.0000    0.0000 O   0  0  0  0  0  0  0  0  0  0  0  0
   -0.0352   -1.4914    0.0000 C   0  0  0  0  0  0  0  0  0  0  0  0
    1.2565   -2.2429    0.0000 C   0  0  0  0  0  0  0  0  0  0  0  0
   -1.3974   -2.1960    0.0000 C   0  0  0  0  0  0  0  0  0  0  0  0
    1.2213   -3.7343    0.0000 C   0  0  0  0  0  0  0  0  0  0  0  0
    2.5483   -1.4326    0.0000 C   0  0  0  0  0  0  0  0  0  0  0  0
   -1.4326   -3.6874    0.0000 C   0  0  0  0  0  0  0  0  0  0  0  0
   -0.1409   -4.4389    0.0000 C   0  0  0  0  0  0  0  0  0  0  0  0
    2.5130   -4.4624    0.0000 C   0  0  0  0  0  0  0  0  0  0  0  0
    3.8400   -2.1372    0.0000 C   0  0  0  0  0  0  0  0  0  0  0  0
   -0.1761   -5.9303    0.0000 C   0  0  0  0  0  0  0  0  0  0  0  0
    2.4778   -5.9538    0.0000 C   0  0  0  0  0  0  0  0  0  0  0  0
    1.1156   -6.6467    0.0000 C   0  0  0  0  0  0  0  0  0  0  0  0
  1  2  1  0
  2  3  1  0
  2  4  1  0
  3  5  1  0
  3  6  1  0
  4  7  1  0
  5  8  2  0
  5  9  1  0
  6 10  1  0
  8 11  1  0
  9 12  2  0
 11 13  2  0
  7  8  1  0
 12 13  1  0
M  END
>  <Structure No>
154

>  <Molecule Name>
1-Ethyl-1,2,3,4-tetrahydronaphthalen-2-ol

>  <PubChem CID>
249488

>  <SMILES>
CCC(C(CC1)O)c2c1cccc2

>  <InChIKey>
MZXUEGCVKCBYAR-UHFFFAOYSA-N

>  <Molecular Formula>
C12H16O

>  <Target Organism>
Aedes aegypti

>  <Reference DOI>
10.3390/toxics11100837

>  <Activity Label>
1

>  <Repellency>
Active

>  <IUPAC>
1-ethyl-1,2,3,4-tetrahydronaphthalen-2-ol

>  <Common name>
1-Ethyl-1,2,3,4-tetrahydronaphthalen-2-ol

$$$$
Compound 155
     RDKit          2D

 13 14  0  0  0  0  0  0  0  0999 V2000
    0.0000    0.0000    0.0000 O   0  0  0  0  0  0  0  0  0  0  0  0
    1.2602    0.7634    0.0000 C   0  0  0  0  0  0  0  0  0  0  0  0
    2.5205    0.0363    0.0000 C   0  0  0  0  0  0  0  0  0  0  0  0
    3.7808    0.8119    0.0000 C   0  0  0  0  0  0  0  0  0  0  0  0
    3.7445    2.3509    0.0000 C   0  0  0  0  0  0  0  0  0  0  0  0
    5.0411    0.0848    0.0000 C   0  0  0  0  0  0  0  0  0  0  0  0
    5.0048    3.1265    0.0000 C   0  0  0  0  0  0  0  0  0  0  0  0
    2.4115    3.1265    0.0000 C   0  0  0  0  0  0  0  0  0  0  0  0
    6.3014    0.8603    0.0000 C   0  0  0  0  0  0  0  0  0  0  0  0
    6.2651    2.3994    0.0000 C   0  0  0  0  0  0  0  0  0  0  0  0
    4.9684    4.6655    0.0000 C   0  0  0  0  0  0  0  0  0  0  0  0
    2.3751    4.6655    0.0000 C   0  0  0  0  0  0  0  0  0  0  0  0
    3.6354    5.4411    0.0000 C   0  0  0  0  0  0  0  0  0  0  0  0
  1  2  1  0
  2  3  1  0
  3  4  1  0
  4  5  2  0
  4  6  1  0
  5  7  1  0
  5  8  1  0
  6  9  2  0
  7 10  2  0
  7 11  1  0
  8 12  1  0
 11 13  1  0
  9 10  1  0
 12 13  1  0
M  END
>  <Structure No>
155

>  <Molecule Name>
1-Naphthaleneethanol, 5,6,7,8-tetrahydro-

>  <PubChem CID>
68827013

>  <SMILES>
OCCc1c(CCCC2)c2ccc1

>  <InChIKey>
KATDHTDHYWKUNV-UHFFFAOYSA-N

>  <Molecular Formula>
C12H16O

>  <Target Organism>
Aedes aegypti

>  <Reference DOI>
10.3390/toxics11100837

>  <Activity Label>
1

>  <Repellency>
Active

>  <IUPAC>
2-(5,6,7,8-tetrahydronaphthalen-1-yl)ethanol

>  <Common name>
1-Naphthaleneethanol, 5,6,7,8-tetrahydro-

$$$$
Compound 156
     RDKit          2D

 13 14  0  0  0  0  0  0  0  0999 V2000
    0.0000    0.0000    0.0000 N   0  0  0  0  0  0  0  0  0  0  0  0
    1.2939   -0.7175    0.0000 C   0  0  0  0  0  0  0  0  0  0  0  0
   -1.3645   -0.7057    0.0000 C   0  0  0  0  0  0  0  0  0  0  0  0
    1.2586   -2.2114    0.0000 C   0  0  0  0  0  0  0  0  0  0  0  0
    2.5879    0.0823    0.0000 C   0  0  0  0  0  0  0  0  0  0  0  0
   -1.3998   -2.1997    0.0000 C   0  0  0  0  0  0  0  0  0  0  0  0
   -0.1058   -2.9172    0.0000 C   0  0  0  0  0  0  0  0  0  0  0  0
    3.8818   -0.6234    0.0000 C   0  0  0  0  0  0  0  0  0  0  0  0
    3.8465   -2.1173    0.0000 C   0  0  0  0  0  0  0  0  0  0  0  0
    5.1758    0.1646    0.0000 C   0  0  0  0  0  0  0  0  0  0  0  0
    5.1405   -2.8467    0.0000 C   0  0  0  0  0  0  0  0  0  0  0  0
    6.4697   -0.5528    0.0000 C   0  0  0  0  0  0  0  0  0  0  0  0
    6.4344   -2.0350    0.0000 C   0  0  0  0  0  0  0  0  0  0  0  0
  1  2  2  0
  1  3  1  0
  2  4  1  0
  2  5  1  0
  3  6  2  0
  4  7  2  0
  5  8  1  0
  8  9  2  0
  8 10  1  0
  9 11  1  0
 10 12  2  0
 11 13  2  0
  6  7  1  0
 12 13  1  0
M  END
>  <Structure No>
156

>  <Molecule Name>
2-(Phenylmethyl)pyridine

>  <PubChem CID>
7581

>  <SMILES>
C(c1ccccc1)c1ncccc1

>  <InChIKey>
PCFUWBOSXMKGIP-UHFFFAOYSA-N

>  <Molecular Formula>
C12H11N

>  <Target Organism>
Aedes aegypti

>  <Reference DOI>
10.3390/toxics11100837

>  <Activity Label>
1

>  <Repellency>
Active

>  <IUPAC>
2-benzylpyridine

>  <Common name>
2-(Phenylmethyl)pyridine

$$$$
Compound 157
     RDKit          2D

 13 14  0  0  0  0  0  0  0  0999 V2000
    0.0000    0.0000    0.0000 O   0  0  0  0  0  0  0  0  0  0  0  0
   -0.0348   -1.4752    0.0000 C   0  0  0  0  0  0  0  0  0  0  0  0
   -1.3823   -2.1838    0.0000 N   0  0  0  0  0  0  0  0  0  0  0  0
    1.2429   -2.1838    0.0000 C   0  0  0  0  0  0  0  0  0  0  0  0
   -1.4171   -3.6591    0.0000 C   0  0  0  0  0  0  0  0  0  0  0  0
   -2.7298   -1.3707    0.0000 C   0  0  0  0  0  0  0  0  0  0  0  0
   -2.7646   -4.3561    0.0000 C   0  0  0  0  0  0  0  0  0  0  0  0
   -0.1393   -4.3793    0.0000 C   0  0  0  0  0  0  0  0  0  0  0  0
   -4.0773   -2.0676    0.0000 C   0  0  0  0  0  0  0  0  0  0  0  0
   -2.7995   -5.8313    0.0000 C   0  0  0  0  0  0  0  0  0  0  0  0
   -4.1121   -3.5545    0.0000 C   0  0  0  0  0  0  0  0  0  0  0  0
   -0.1742   -5.8546    0.0000 C   0  0  0  0  0  0  0  0  0  0  0  0
   -1.5217   -6.5515    0.0000 C   0  0  0  0  0  0  0  0  0  0  0  0
  1  2  2  0
  2  3  1  0
  2  4  1  0
  3  5  1  0
  3  6  1  0
  5  7  2  0
  5  8  1  0
  6  9  1  0
  7 10  1  0
  7 11  1  0
  8 12  2  0
 10 13  2  0
  9 11  1  0
 12 13  1  0
M  END
>  <Structure No>
157

>  <Molecule Name>
1-(1,2,3,4-Tetrahydroquinolin-1-yl)ethan-1-one

>  <PubChem CID>
347850

>  <SMILES>
CC(N(CCC1)c2c1cccc2)=O

>  <InChIKey>
RRWLNRQGJSQRAF-UHFFFAOYSA-N

>  <Molecular Formula>
C11H13NO

>  <Target Organism>
Aedes aegypti

>  <Reference DOI>
10.3390/toxics11100837

>  <Activity Label>
1

>  <Repellency>
Active

>  <IUPAC>
1-(3,4-dihydro-2H-quinolin-1-yl)ethanone

>  <Common name>
1-(1,2,3,4-Tetrahydroquinolin-1-yl)ethan-1-one

$$$$
Compound 158
     RDKit          2D

  0  0  0  0  0  0  0  0  0  0999 V3000
M  V30 BEGIN CTAB
M  V30 COUNTS 13 14 0 0 0
M  V30 BEGIN ATOM
M  V30 1 O 0.000000 0.000000 0.000000 0
M  V30 2 C 1.185700 -0.843400 0.000000 0
M  V30 3 C 0.440000 1.479100 0.000000 0
M  V30 4 N 2.371500 0.073300 0.000000 0
M  V30 5 C 1.149000 -2.322600 0.000000 0
M  V30 6 C 1.919200 1.515800 0.000000 0
M  V30 7 C -0.195500 -3.068300 0.000000 0
M  V30 8 C 2.420400 -3.068300 0.000000 0
M  V30 9 C 1.882500 3.068300 0.000000 0
M  V30 10 C 3.325000 2.029200 0.000000 0
M  V30 11 C -0.232200 -4.547400 0.000000 0
M  V30 12 C 2.383700 -4.547400 0.000000 0
M  V30 13 C 1.039000 -5.293100 0.000000 0
M  V30 END ATOM
M  V30 BEGIN BOND
M  V30 1 1 1 2
M  V30 2 1 1 3
M  V30 3 1 2 4
M  V30 4 1 2 5 CFG=3
M  V30 5 1 3 6
M  V30 6 2 5 7
M  V30 7 1 5 8
M  V30 8 1 6 9
M  V30 9 1 6 10
M  V30 10 1 7 11
M  V30 11 2 8 12
M  V30 12 2 11 13
M  V30 13 1 4 6
M  V30 14 1 12 13
M  V30 END BOND
M  V30 BEGIN COLLECTION
M  V30 MDLV30/STERAC1 ATOMS=(1 2)
M  V30 END COLLECTION
M  V30 END CTAB
M  END
>  <Structure No>
158

>  <Molecule Name>
4,4-Dimethyl-2-phenyl-1,3-oxazolidine

>  <PubChem CID>
589827

>  <SMILES>
CC1(C)NC(c2ccccc2)OC1

>  <InChIKey>
ZYUWGAVXDLKUKT-UHFFFAOYSA-N

>  <Molecular Formula>
C11H15NO

>  <Target Organism>
Aedes aegypti

>  <Reference DOI>
10.1371/annotation/1dc83f26-8045-4b63-8a86-24c7b71a7f79

>  <Activity Label>
1

>  <Repellency>
Active

>  <IUPAC>
4,4-dimethyl-2-phenyl-1,3-oxazolidine

>  <Common name>
4,4-Dimethyl-2-phenyl-1,3-oxazolidine

$$$$
Compound 159
     RDKit          2D

 13 13  0  0  0  0  0  0  0  0999 V2000
    0.0000    0.0000    0.0000 O   0  0  0  0  0  0  0  0  0  0  0  0
   -0.0367    1.5546    0.0000 C   0  0  0  0  0  0  0  0  0  0  0  0
    1.2363    2.3257    0.0000 C   0  0  0  0  0  0  0  0  0  0  0  0
    1.1996    3.8804    0.0000 C   0  0  0  0  0  0  0  0  0  0  0  0
    2.5094    1.5913    0.0000 C   0  0  0  0  0  0  0  0  0  0  0  0
    2.4726    4.6638    0.0000 C   0  0  0  0  0  0  0  0  0  0  0  0
    3.7824    2.3625    0.0000 C   0  0  0  0  0  0  0  0  0  0  0  0
    3.7457    3.9171    0.0000 C   0  0  0  0  0  0  0  0  0  0  0  0
    5.0188    4.6883    0.0000 O   0  0  0  0  0  0  0  0  0  0  0  0
    6.2918    3.9538    0.0000 C   0  0  0  0  0  0  0  0  0  0  0  0
    7.5649    4.7372    0.0000 C   0  0  0  0  0  0  0  0  0  0  0  0
    8.8380    4.0028    0.0000 C   0  0  0  0  0  0  0  0  0  0  0  0
   10.1111    4.7862    0.0000 C   0  0  0  0  0  0  0  0  0  0  0  0
  1  2  2  0
  2  3  1  0
  3  4  2  0
  3  5  1  0
  4  6  1  0
  5  7  2  0
  6  8  2  0
  8  9  1  0
  9 10  1  0
 10 11  1  0
 11 12  1  0
 12 13  1  0
  7  8  1  0
M  END
>  <Structure No>
159

>  <Molecule Name>
4-Butoxybenzaldehyde

>  <PubChem CID>
79813

>  <SMILES>
CCCCOc1ccc(C=O)cc1

>  <InChIKey>
XHWMNHADTZZHGI-UHFFFAOYSA-N

>  <Molecular Formula>
C11H14O2

>  <Target Organism>
Aedes aegypti

>  <Reference DOI>
10.3390/toxics11100837

>  <Activity Label>
1

>  <Repellency>
Active

>  <IUPAC>
4-butoxybenzaldehyde

>  <Common name>
4-Butoxybenzaldehyde

$$$$
Compound 160
     RDKit          2D

 13 13  0  0  0  0  0  0  0  0999 V2000
    0.0000    0.0000    0.0000 O   0  0  0  0  0  0  0  0  0  0  0  0
   -1.3339   -0.6899    0.0000 C   0  0  0  0  0  0  0  0  0  0  0  0
    1.2649   -0.6899    0.0000 C   0  0  0  0  0  0  0  0  0  0  0  0
   -2.6679    0.1149    0.0000 C   0  0  0  0  0  0  0  0  0  0  0  0
   -1.3684   -2.1504    0.0000 C   0  0  0  0  0  0  0  0  0  0  0  0
    2.5299    0.1034    0.0000 C   0  0  0  0  0  0  0  0  0  0  0  0
    1.2304   -2.1504    0.0000 C   0  0  0  0  0  0  0  0  0  0  0  0
   -4.0018   -0.5749    0.0000 C   0  0  0  0  0  0  0  0  0  0  0  0
   -2.7024   -2.8404    0.0000 C   0  0  0  0  0  0  0  0  0  0  0  0
   -4.0363   -2.0354    0.0000 C   0  0  0  0  0  0  0  0  0  0  0  0
   -5.3703   -2.7254    0.0000 C   0  0  0  0  0  0  0  0  0  0  0  0
   -6.7043   -1.9204    0.0000 C   0  0  0  0  0  0  0  0  0  0  0  0
   -8.0382   -2.6104    0.0000 O   0  0  0  0  0  0  0  0  0  0  0  0
  1  2  1  0
  1  3  1  0
  2  4  2  0
  2  5  1  0
  3  6  1  0
  3  7  1  0
  4  8  1  0
  5  9  2  0
  8 10  2  0
 10 11  1  0
 11 12  1  0
 12 13  1  0
  9 10  1  0
M  END
>  <Structure No>
160

>  <Molecule Name>
2-(4-Isopropoxyphenyl)ethanol

>  <PubChem CID>
228096

>  <SMILES>
CC(C)Oc1ccc(CCO)cc1

>  <InChIKey>
IVMMFYBOPVQEIK-UHFFFAOYSA-N

>  <Molecular Formula>
C11H16O2

>  <Target Organism>
Aedes aegypti

>  <Reference DOI>
10.3390/toxics11100837

>  <Activity Label>
1

>  <Repellency>
Active

>  <IUPAC>
2-(4-propan-2-yloxyphenyl)ethanol

>  <Common name>
2-(4-Isopropoxyphenyl)ethanol

$$$$
Compound 161
     RDKit          2D

  0  0  0  0  0  0  0  0  0  0999 V3000
M  V30 BEGIN CTAB
M  V30 COUNTS 13 13 0 0 0
M  V30 BEGIN ATOM
M  V30 1 O 0.000000 0.000000 0.000000 0
M  V30 2 C -1.345200 -0.695800 0.000000 0
M  V30 3 C 1.275700 -0.695800 0.000000 0
M  V30 4 C -2.690500 0.115900 0.000000 0
M  V30 5 C -1.380000 -2.168600 0.000000 0
M  V30 6 C 2.551400 0.092700 0.000000 0
M  V30 7 C 1.240900 -2.168600 0.000000 0
M  V30 8 C -4.035800 -0.579800 0.000000 0
M  V30 9 C -2.725300 -2.864500 0.000000 0
M  V30 10 C 3.827100 -0.603000 0.000000 0
M  V30 11 C -4.070600 -2.052700 0.000000 0
M  V30 12 C -5.415900 -2.748500 0.000000 0
M  V30 13 O -5.450700 -4.221400 0.000000 0
M  V30 END ATOM
M  V30 BEGIN BOND
M  V30 1 1 1 2
M  V30 2 1 1 3
M  V30 3 2 2 4
M  V30 4 1 2 5
M  V30 5 1 3 6
M  V30 6 1 3 7 CFG=3
M  V30 7 1 4 8
M  V30 8 2 5 9
M  V30 9 1 6 10
M  V30 10 2 8 11
M  V30 11 1 11 12
M  V30 12 1 12 13
M  V30 13 1 9 11
M  V30 END BOND
M  V30 BEGIN COLLECTION
M  V30 MDLV30/STERAC1 ATOMS=(1 3)
M  V30 END COLLECTION
M  V30 END CTAB
M  END
>  <Structure No>
161

>  <Molecule Name>
p-sec-Butoxybenzyl alcohol

>  <PubChem CID>
250090

>  <SMILES>
CCC(C)Oc1ccc(CO)cc1

>  <InChIKey>
WFQFPWAJNZTQEY-VIFPVBQESA-N

>  <Molecular Formula>
C11H16O2

>  <Target Organism>
Aedes aegypti

>  <Reference DOI>
10.3390/toxics11100837

>  <Activity Label>
1

>  <Repellency>
Active

>  <IUPAC>
(4-butan-2-yloxyphenyl)methanol

>  <Common name>
p-sec-Butoxybenzyl alcohol

$$$$
Compound 162
     RDKit          2D

 13 13  0  0  0  0  0  0  0  0999 V2000
    0.0000    0.0000    0.0000 O   0  0  0  0  0  0  0  0  0  0  0  0
   -0.0348   -1.4773    0.0000 C   0  0  0  0  0  0  0  0  0  0  0  0
   -1.3842   -2.2102    0.0000 O   0  0  0  0  0  0  0  0  0  0  0  0
    1.2447   -2.2102    0.0000 C   0  0  0  0  0  0  0  0  0  0  0  0
   -2.7337   -1.4075    0.0000 C   0  0  0  0  0  0  0  0  0  0  0  0
    2.5243   -1.4075    0.0000 C   0  0  0  0  0  0  0  0  0  0  0  0
   -4.0831   -2.1171    0.0000 C   0  0  0  0  0  0  0  0  0  0  0  0
    3.8039   -2.1171    0.0000 C   0  0  0  0  0  0  0  0  0  0  0  0
    3.7690   -3.5945    0.0000 C   0  0  0  0  0  0  0  0  0  0  0  0
    5.0835   -1.3145    0.0000 C   0  0  0  0  0  0  0  0  0  0  0  0
    5.0486   -4.3273    0.0000 C   0  0  0  0  0  0  0  0  0  0  0  0
    6.3631   -2.0124    0.0000 C   0  0  0  0  0  0  0  0  0  0  0  0
    6.3282   -3.5247    0.0000 C   0  0  0  0  0  0  0  0  0  0  0  0
  1  2  2  0
  2  3  1  0
  2  4  1  0
  3  5  1  0
  4  6  2  3
  5  7  1  0
  6  8  1  0
  8  9  2  0
  8 10  1  0
  9 11  1  0
 10 12  2  0
 11 13  2  0
 12 13  1  0
M  END
>  <Structure No>
162

>  <Molecule Name>
Ethyl 3-phenylprop-2-enoate

>  <PubChem CID>
7649

>  <SMILES>
CCOC(C=Cc1ccccc1)=O

>  <InChIKey>
KBEBGUQPQBELIU-UHFFFAOYSA-N

>  <Molecular Formula>
C11H12O2

>  <Target Organism>
Aedes aegypti

>  <Reference DOI>
10.3390/toxics11100837

>  <Activity Label>
1

>  <Repellency>
Active

>  <IUPAC>
ethyl 3-phenylprop-2-enoate

>  <Common name>
Ethyl 3-phenylprop-2-enoate

$$$$
Compound 163
     RDKit          2D

  0  0  0  0  0  0  0  0  0  0999 V3000
M  V30 BEGIN CTAB
M  V30 COUNTS 13 13 0 0 0
M  V30 BEGIN ATOM
M  V30 1 O 0.000000 0.000000 0.000000 0
M  V30 2 C -0.644900 -1.325100 0.000000 0
M  V30 3 O -2.134200 -1.606500 0.000000 0
M  V30 4 C 0.070300 -2.579900 0.000000 0
M  V30 5 C -2.321900 -3.048900 0.000000 0
M  V30 6 C -0.949800 -3.647000 0.000000 0
M  V30 7 C -3.647000 -3.764300 0.000000 0
M  V30 8 C -4.972100 -2.990300 0.000000 0
M  V30 9 C -6.297300 -3.705600 0.000000 0
M  V30 10 C -7.622400 -2.931700 0.000000 0
M  V30 11 C -8.947500 -3.658700 0.000000 0
M  V30 12 C -10.272700 -2.884800 0.000000 0
M  V30 13 C -11.597800 -3.611800 0.000000 0
M  V30 END ATOM
M  V30 BEGIN BOND
M  V30 1 2 1 2
M  V30 2 1 2 3
M  V30 3 1 2 4
M  V30 4 1 3 5
M  V30 5 1 4 6
M  V30 6 1 5 7 CFG=3
M  V30 7 1 7 8
M  V30 8 1 8 9
M  V30 9 1 9 10
M  V30 10 1 10 11
M  V30 11 1 11 12
M  V30 12 1 12 13
M  V30 13 1 5 6
M  V30 END BOND
M  V30 BEGIN COLLECTION
M  V30 MDLV30/STERAC1 ATOMS=(1 5)
M  V30 END COLLECTION
M  V30 END CTAB
M  END
>  <Structure No>
163

>  <Molecule Name>
Gamma-undecalactone

>  <PubChem CID>
7714

>  <SMILES>
CCCCCCCC(CC1)OC1=O

>  <InChIKey>
PHXATPHONSXBIL-JTQLQIEISA-N

>  <Molecular Formula>
C11H20O2

>  <Target Organism>
Aedes aegypti

>  <Reference DOI>
10.3390/toxics11100837

>  <Activity Label>
1

>  <Repellency>
Active

>  <IUPAC>
5-heptyloxolan-2-one

>  <Common name>
Gamma-undecalactone

$$$$
Compound 164
     RDKit          2D

  0  0  0  0  0  0  0  0  0  0999 V3000
M  V30 BEGIN CTAB
M  V30 COUNTS 13 13 0 0 0
M  V30 BEGIN ATOM
M  V30 1 O 0.000000 0.000000 0.000000 0
M  V30 2 C 1.272200 -0.746200 0.000000 0
M  V30 3 C -1.345600 -0.746200 0.000000 0
M  V30 4 C 2.544500 0.024400 0.000000 0
M  V30 5 C -2.691300 0.024400 0.000000 0
M  V30 6 O 2.507800 1.578000 0.000000 0
M  V30 7 C 3.816700 -0.709500 0.000000 0
M  V30 8 C -4.036900 -0.709500 0.000000 0
M  V30 9 C 3.780000 -2.189700 0.000000 0
M  V30 10 C 5.089000 0.061100 0.000000 0
M  V30 11 C 5.052300 -2.935900 0.000000 0
M  V30 12 C 6.361300 -0.672800 0.000000 0
M  V30 13 C 6.324600 -2.165200 0.000000 0
M  V30 END ATOM
M  V30 BEGIN BOND
M  V30 1 1 1 2
M  V30 2 1 1 3
M  V30 3 1 2 4
M  V30 4 1 3 5
M  V30 5 1 4 6 CFG=3
M  V30 6 1 4 7
M  V30 7 1 5 8
M  V30 8 2 7 9
M  V30 9 1 7 10
M  V30 10 1 9 11
M  V30 11 2 10 12
M  V30 12 2 11 13
M  V30 13 1 12 13
M  V30 END BOND
M  V30 BEGIN COLLECTION
M  V30 MDLV30/STERAC1 ATOMS=(1 4)
M  V30 END COLLECTION
M  V30 END CTAB
M  END
>  <Structure No>
164

>  <Molecule Name>
1-Phenyl-2-propoxyethanol

>  <PubChem CID>
245443

>  <SMILES>
CCCOCC(c1ccccc1)O

>  <InChIKey>
MOIIMLOKLBXYSV-NSHDSACASA-N

>  <Molecular Formula>
C11H16O2

>  <Target Organism>
Aedes aegypti

>  <Reference DOI>
10.3390/toxics11100837

>  <Activity Label>
1

>  <Repellency>
Active

>  <IUPAC>
1-phenyl-2-propoxyethanol

>  <Common name>
1-Phenyl-2-propoxyethanol

$$$$
Compound 165
     RDKit          2D

 13 13  0  0  0  0  0  0  0  0999 V2000
    0.0000    0.0000    0.0000 O   0  0  0  0  0  0  0  0  0  0  0  0
   -0.0718    1.5215    0.0000 C   0  0  0  0  0  0  0  0  0  0  0  0
   -1.3898    2.2883    0.0000 C   0  0  0  0  0  0  0  0  0  0  0  0
    1.1022    2.2883    0.0000 C   0  0  0  0  0  0  0  0  0  0  0  0
   -2.7077    1.5934    0.0000 C   0  0  0  0  0  0  0  0  0  0  0  0
    1.0303    3.8099    0.0000 C   0  0  0  0  0  0  0  0  0  0  0  0
   -4.0256    2.3602    0.0000 C   0  0  0  0  0  0  0  0  0  0  0  0
   -0.2875    4.5767    0.0000 C   0  0  0  0  0  0  0  0  0  0  0  0
   -4.0975    3.8818    0.0000 C   0  0  0  0  0  0  0  0  0  0  0  0
   -0.3594    6.0983    0.0000 C   0  0  0  0  0  0  0  0  0  0  0  0
   -2.9233    4.6486    0.0000 C   0  0  0  0  0  0  0  0  0  0  0  0
   -1.6773    6.8651    0.0000 C   0  0  0  0  0  0  0  0  0  0  0  0
   -2.9952    6.1702    0.0000 C   0  0  0  0  0  0  0  0  0  0  0  0
  1  2  2  0
  2  3  1  0
  2  4  1  0
  3  5  1  0
  4  6  1  0
  5  7  1  0
  6  8  1  0
  7  9  1  0
  8 10  1  0
  9 11  1  0
 10 12  1  0
 11 13  1  0
 12 13  1  0
M  END
>  <Structure No>
165

>  <Molecule Name>
Cyclododecanone

>  <PubChem CID>
13246

>  <SMILES>
O=C1CCCCCCCCCCC1

>  <InChIKey>
SXVPOSFURRDKBO-UHFFFAOYSA-N

>  <Molecular Formula>
C12H22O

>  <Target Organism>
Aedes albopictus

>  <Reference DOI>
10.1021/acs.jafc.2c05537

>  <Activity Label>
1

>  <Repellency>
Active

>  <IUPAC>
cyclododecanone

>  <Common name>
Cyclododecanone

$$$$
Compound 166
     RDKit          2D

 13 13  0  0  0  0  0  0  0  0999 V2000
    0.0000    0.0000    0.0000 O   0  0  0  0  0  0  0  0  0  0  0  0
    1.2815    0.7763    0.0000 C   0  0  0  0  0  0  0  0  0  0  0  0
    2.5630    0.0246    0.0000 C   0  0  0  0  0  0  0  0  0  0  0  0
    1.2445    2.3412    0.0000 C   0  0  0  0  0  0  0  0  0  0  0  0
    3.8445    0.8132    0.0000 C   0  0  0  0  0  0  0  0  0  0  0  0
    5.1260    0.0616    0.0000 C   0  0  0  0  0  0  0  0  0  0  0  0
    6.4075    0.8502    0.0000 C   0  0  0  0  0  0  0  0  0  0  0  0
    7.6890    0.0985    0.0000 C   0  0  0  0  0  0  0  0  0  0  0  0
    7.6521   -1.3924    0.0000 C   0  0  0  0  0  0  0  0  0  0  0  0
    8.9705    0.8872    0.0000 C   0  0  0  0  0  0  0  0  0  0  0  0
    8.9336   -2.1440    0.0000 C   0  0  0  0  0  0  0  0  0  0  0  0
   10.2520    0.1478    0.0000 C   0  0  0  0  0  0  0  0  0  0  0  0
   10.2151   -1.3554    0.0000 C   0  0  0  0  0  0  0  0  0  0  0  0
  1  2  2  0
  2  3  1  0
  2  4  1  0
  3  5  1  0
  5  6  1  0
  6  7  2  3
  7  8  1  0
  8  9  2  0
  8 10  1  0
  9 11  1  0
 10 12  2  0
 11 13  2  0
 12 13  1  0
M  END
>  <Structure No>
166

>  <Molecule Name>
6-Phenyl-5-hexen-2-one

>  <PubChem CID>
53812467

>  <SMILES>
CC(CCC=Cc1ccccc1)=O

>  <InChIKey>
FQAGFMVFSPYMEW-UHFFFAOYSA-N

>  <Molecular Formula>
C12H14O

>  <Target Organism>
Aedes aegypti

>  <Reference DOI>
10.3390/toxics11100837

>  <Activity Label>
1

>  <Repellency>
Active

>  <IUPAC>
6-phenylhex-5-en-2-one

>  <Common name>
6-Phenyl-5-hexen-2-one

$$$$
Compound 167
     RDKit          2D

  0  0  0  0  0  0  0  0  0  0999 V3000
M  V30 BEGIN CTAB
M  V30 COUNTS 13 13 0 0 0
M  V30 BEGIN ATOM
M  V30 1 Cl 0.000000 0.000000 0.000000 0
M  V30 2 C -0.036300 -1.467300 0.000000 0
M  V30 3 C -1.370200 -2.207000 0.000000 0
M  V30 4 C 1.224700 -2.194900 0.000000 0
M  V30 5 C -1.406600 -3.674300 0.000000 0
M  V30 6 C -2.704200 -1.418800 0.000000 0
M  V30 7 C 1.188300 -3.662200 0.000000 0
M  V30 8 C -0.145500 -4.401900 0.000000 0
M  V30 9 O -2.740500 0.121200 0.000000 0
M  V30 10 C -4.038100 -2.146300 0.000000 0
M  V30 11 Cl -4.814200 -0.812400 0.000000 0
M  V30 12 Cl -5.372000 -2.873900 0.000000 0
M  V30 13 Cl -3.298400 -3.407500 0.000000 0
M  V30 END ATOM
M  V30 BEGIN BOND
M  V30 1 1 1 2
M  V30 2 2 2 3
M  V30 3 1 2 4
M  V30 4 1 3 5
M  V30 5 1 3 6
M  V30 6 2 4 7
M  V30 7 2 5 8
M  V30 8 1 6 9 CFG=3
M  V30 9 1 6 10
M  V30 10 1 10 11
M  V30 11 1 10 12
M  V30 12 1 10 13
M  V30 13 1 7 8
M  V30 END BOND
M  V30 BEGIN COLLECTION
M  V30 MDLV30/STERAC1 ATOMS=(1 6)
M  V30 END COLLECTION
M  V30 END CTAB
M  END
>  <Structure No>
167

>  <Molecule Name>
2,2,2-Trichloro-1-(2-chlorophenyl)ethanol

>  <PubChem CID>
221276

>  <SMILES>
OC(C(Cl)(Cl)Cl)c(cccc1)c1Cl

>  <InChIKey>
CFMLFQVQUCIPIX-SSDOTTSWSA-N

>  <Molecular Formula>
C8H6OCl4

>  <Target Organism>
Aedes aegypti

>  <Reference DOI>
10.3390/toxics11100837

>  <Activity Label>
1

>  <Repellency>
Active

>  <IUPAC>
2,2,2-trichloro-1-(2-chlorophenyl)ethanol

>  <Common name>
2,2,2-Trichloro-1-(2-chlorophenyl)ethanol

$$$$
Compound 168
     RDKit          2D

  0  0  0  0  0  0  0  0  0  0999 V3000
M  V30 BEGIN CTAB
M  V30 COUNTS 13 13 0 0 0
M  V30 BEGIN ATOM
M  V30 1 O 0.000000 0.000000 0.000000 0
M  V30 2 C -0.035100 -1.490000 0.000000 0
M  V30 3 C 1.255300 -2.217400 0.000000 0
M  V30 4 C -1.396100 -2.194000 0.000000 0
M  V30 5 O 2.545900 -1.407900 0.000000 0
M  V30 6 C 1.220100 -3.707500 0.000000 0
M  V30 7 C -1.431300 -3.684000 0.000000 0
M  V30 8 C 3.836500 -2.111800 0.000000 0
M  V30 9 C -0.140700 -4.411400 0.000000 0
M  V30 10 O 3.801300 -3.601900 0.000000 0
M  V30 11 C 5.127100 -1.302300 0.000000 0
M  V30 12 C 6.417700 -2.006200 0.000000 0
M  V30 13 C 7.708300 -1.196700 0.000000 0
M  V30 END ATOM
M  V30 BEGIN BOND
M  V30 1 2 1 2
M  V30 2 1 2 3
M  V30 3 1 2 4
M  V30 4 1 3 5 CFG=1
M  V30 5 1 3 6
M  V30 6 1 4 7
M  V30 7 1 5 8
M  V30 8 1 6 9
M  V30 9 2 8 10
M  V30 10 1 8 11
M  V30 11 1 11 12
M  V30 12 1 12 13
M  V30 13 1 7 9
M  V30 END BOND
M  V30 BEGIN COLLECTION
M  V30 MDLV30/STERAC1 ATOMS=(1 3)
M  V30 END COLLECTION
M  V30 END CTAB
M  END
>  <Structure No>
168

>  <Molecule Name>
(2-Oxocyclohexyl) butanoate

>  <PubChem CID>
53812450

>  <SMILES>
CCCC(OC(CCCC1)C1=O)=O

>  <InChIKey>
FPZVIRABLKTVID-VIFPVBQESA-N

>  <Molecular Formula>
C10H16O3

>  <Target Organism>
Aedes aegypti

>  <Reference DOI>
10.3390/toxics11100837

>  <Activity Label>
1

>  <Repellency>
Active

>  <IUPAC>
(2-oxocyclohexyl) butanoate

>  <Common name>
(2-Oxocyclohexyl) butanoate

$$$$
Compound 169
     RDKit          2D

 13 13  0  0  0  0  0  0  0  0999 V2000
    0.0000    0.0000    0.0000 O   0  0  0  0  0  0  0  0  0  0  0  0
   -0.0360    1.5280    0.0000 C   0  0  0  0  0  0  0  0  0  0  0  0
   -1.3595    2.2860    0.0000 O   0  0  0  0  0  0  0  0  0  0  0  0
    1.2152    2.2860    0.0000 C   0  0  0  0  0  0  0  0  0  0  0  0
   -2.6830    1.5520    0.0000 C   0  0  0  0  0  0  0  0  0  0  0  0
    1.1791    3.8140    0.0000 C   0  0  0  0  0  0  0  0  0  0  0  0
    2.4665    1.5520    0.0000 C   0  0  0  0  0  0  0  0  0  0  0  0
   -0.1443    4.5841    0.0000 C   0  0  0  0  0  0  0  0  0  0  0  0
    2.4304    4.5841    0.0000 C   0  0  0  0  0  0  0  0  0  0  0  0
    3.7178    2.3221    0.0000 C   0  0  0  0  0  0  0  0  0  0  0  0
   -1.4678    3.8621    0.0000 O   0  0  0  0  0  0  0  0  0  0  0  0
   -0.1804    6.1121    0.0000 C   0  0  0  0  0  0  0  0  0  0  0  0
    3.6817    3.8621    0.0000 C   0  0  0  0  0  0  0  0  0  0  0  0
  1  2  2  0
  2  3  1  0
  2  4  1  0
  3  5  1  0
  4  6  2  0
  4  7  1  0
  6  8  1  0
  6  9  1  0
  7 10  2  0
  8 11  2  0
  8 12  1  0
  9 13  2  0
 10 13  1  0
M  END
>  <Structure No>
169

>  <Molecule Name>
Methyl 2-acetylbenzoate

>  <PubChem CID>
347839

>  <SMILES>
CC(c(cccc1)c1C(OC)=O)=O

>  <InChIKey>
UFOAYTOVTNNRKJ-UHFFFAOYSA-N

>  <Molecular Formula>
C10H10O3

>  <Target Organism>
Aedes aegypti

>  <Reference DOI>
10.3390/toxics11100837

>  <Activity Label>
1

>  <Repellency>
Active

>  <IUPAC>
methyl 2-acetylbenzoate

>  <Common name>
Methyl 2-acetylbenzoate

$$$$
Compound 170
     RDKit          2D

 13 13  0  0  0  0  0  0  0  0999 V2000
    0.0000    0.0000    0.0000 O   0  0  0  0  0  0  0  0  0  0  0  0
   -0.0365   -1.4741    0.0000 C   0  0  0  0  0  0  0  0  0  0  0  0
   -1.3767   -2.2051    0.0000 O   0  0  0  0  0  0  0  0  0  0  0  0
    1.2305   -2.2051    0.0000 C   0  0  0  0  0  0  0  0  0  0  0  0
   -2.7168   -1.4254    0.0000 C   0  0  0  0  0  0  0  0  0  0  0  0
    1.1939   -3.6793    0.0000 O   0  0  0  0  0  0  0  0  0  0  0  0
    2.4975   -1.4254    0.0000 C   0  0  0  0  0  0  0  0  0  0  0  0
   -4.0570   -2.1564    0.0000 C   0  0  0  0  0  0  0  0  0  0  0  0
    3.7646   -2.1564    0.0000 C   0  0  0  0  0  0  0  0  0  0  0  0
    2.4610    0.1218    0.0000 C   0  0  0  0  0  0  0  0  0  0  0  0
    5.0317   -1.3767    0.0000 C   0  0  0  0  0  0  0  0  0  0  0  0
    3.7280    0.9015    0.0000 C   0  0  0  0  0  0  0  0  0  0  0  0
    4.9951    0.1705    0.0000 C   0  0  0  0  0  0  0  0  0  0  0  0
  1  2  2  0
  2  3  1  0
  2  4  1  0
  3  5  1  0
  4  6  2  0
  4  7  1  0
  5  8  1  0
  7  9  2  0
  7 10  1  0
  9 11  1  0
 10 12  2  0
 11 13  2  0
 12 13  1  0
M  END
>  <Structure No>
170

>  <Molecule Name>
Ethyl benzoylformate

>  <PubChem CID>
15349

>  <SMILES>
CCOC(C(c1ccccc1)=O)=O

>  <InChIKey>
QKLCQKPAECHXCQ-UHFFFAOYSA-N

>  <Molecular Formula>
C10H10O3

>  <Target Organism>
Aedes aegypti

>  <Reference DOI>
10.3390/toxics11100837

>  <Activity Label>
1

>  <Repellency>
Active

>  <IUPAC>
ethyl 2-oxo-2-phenylacetate

>  <Common name>
Ethyl benzoylformate

$$$$
Compound 171
     RDKit          2D

  0  0  0  0  0  0  0  0  0  0999 V3000
M  V30 BEGIN CTAB
M  V30 COUNTS 13 13 0 0 0
M  V30 BEGIN ATOM
M  V30 1 O 0.000000 0.000000 0.000000 0
M  V30 2 C -0.034900 -1.478400 0.000000 0
M  V30 3 O -1.385200 -2.176800 0.000000 0
M  V30 4 C 1.245500 -2.176800 0.000000 0
M  V30 5 C -2.735600 -1.373600 0.000000 0
M  V30 6 O 2.526000 -1.373600 0.000000 0
M  V30 7 C 1.210600 -3.655200 0.000000 0
M  V30 8 C -4.085900 -2.072000 0.000000 0
M  V30 9 C -0.139600 -4.353700 0.000000 0
M  V30 10 C 2.491100 -4.376900 0.000000 0
M  V30 11 C -0.174600 -5.832100 0.000000 0
M  V30 12 C 2.456200 -5.855400 0.000000 0
M  V30 13 C 1.105800 -6.577100 0.000000 0
M  V30 END ATOM
M  V30 BEGIN BOND
M  V30 1 2 1 2
M  V30 2 1 2 3
M  V30 3 1 2 4
M  V30 4 1 3 5
M  V30 5 1 4 6 CFG=3
M  V30 6 1 4 7
M  V30 7 1 5 8
M  V30 8 2 7 9
M  V30 9 1 7 10
M  V30 10 1 9 11
M  V30 11 2 10 12
M  V30 12 2 11 13
M  V30 13 1 12 13
M  V30 END BOND
M  V30 BEGIN COLLECTION
M  V30 MDLV30/STERAC1 ATOMS=(1 4)
M  V30 END COLLECTION
M  V30 END CTAB
M  END
>  <Structure No>
171

>  <Molecule Name>
Ethyl mandelate

>  <PubChem CID>
13050

>  <SMILES>
CCOC(C(c1ccccc1)O)=O

>  <InChIKey>
SAXHIDRUJXPDOD-SECBINFHSA-N

>  <Molecular Formula>
C10H12O3

>  <Target Organism>
Aedes aegypti

>  <Reference DOI>
10.3390/toxics11100837

>  <Activity Label>
1

>  <Repellency>
Active

>  <IUPAC>
ethyl 2-hydroxy-2-phenylacetate

>  <Common name>
Ethyl mandelate

$$$$
Compound 172
     RDKit          2D

 13 13  0  0  0  0  0  0  0  0999 V2000
    0.0000    0.0000    0.0000 O   0  0  0  0  0  0  0  0  0  0  0  0
    1.2772   -0.7491    0.0000 C   0  0  0  0  0  0  0  0  0  0  0  0
    2.5544    0.0245    0.0000 O   0  0  0  0  0  0  0  0  0  0  0  0
    1.2403   -2.2351    0.0000 C   0  0  0  0  0  0  0  0  0  0  0  0
    2.5175    1.5842    0.0000 C   0  0  0  0  0  0  0  0  0  0  0  0
    2.5175   -2.9842    0.0000 C   0  0  0  0  0  0  0  0  0  0  0  0
   -0.1105   -2.9719    0.0000 C   0  0  0  0  0  0  0  0  0  0  0  0
    3.7948   -2.2105    0.0000 O   0  0  0  0  0  0  0  0  0  0  0  0
    2.4807   -4.4702    0.0000 C   0  0  0  0  0  0  0  0  0  0  0  0
   -0.1473   -4.4579    0.0000 C   0  0  0  0  0  0  0  0  0  0  0  0
    5.0720   -2.9474    0.0000 C   0  0  0  0  0  0  0  0  0  0  0  0
    1.1298   -5.2071    0.0000 C   0  0  0  0  0  0  0  0  0  0  0  0
    6.3492   -2.1614    0.0000 C   0  0  0  0  0  0  0  0  0  0  0  0
  1  2  2  0
  2  3  1  0
  2  4  1  0
  3  5  1  0
  4  6  2  0
  4  7  1  0
  6  8  1  0
  6  9  1  0
  7 10  2  0
  8 11  1  0
  9 12  2  0
 11 13  1  0
 10 12  1  0
M  END
>  <Structure No>
172

>  <Molecule Name>
Methyl 2-ethoxybenzoate

>  <PubChem CID>
347794

>  <SMILES>
CCOc(cccc1)c1C(OC)=O

>  <InChIKey>
QAYQKAPOTVSWLS-UHFFFAOYSA-N

>  <Molecular Formula>
C10H12O3

>  <Target Organism>
Aedes aegypti

>  <Reference DOI>
10.3390/toxics11100837

>  <Activity Label>
1

>  <Repellency>
Active

>  <IUPAC>
methyl 2-ethoxybenzoate

>  <Common name>
Methyl 2-ethoxybenzoate

$$$$
Compound 173
     RDKit          2D

 13 13  0  0  0  0  0  0  0  0999 V2000
    0.0000    0.0000    0.0000 O   0  0  0  0  0  0  0  0  0  0  0  0
   -0.0362    1.5366    0.0000 C   0  0  0  0  0  0  0  0  0  0  0  0
    1.2220    2.3109    0.0000 O   0  0  0  0  0  0  0  0  0  0  0  0
   -1.3672    2.3109    0.0000 C   0  0  0  0  0  0  0  0  0  0  0  0
    2.4803    1.5850    0.0000 C   0  0  0  0  0  0  0  0  0  0  0  0
   -2.6981    1.5850    0.0000 C   0  0  0  0  0  0  0  0  0  0  0  0
    3.7386    2.3593    0.0000 C   0  0  0  0  0  0  0  0  0  0  0  0
   -1.4398    0.8469    0.0000 O   0  0  0  0  0  0  0  0  0  0  0  0
   -4.0290    2.3593    0.0000 C   0  0  0  0  0  0  0  0  0  0  0  0
   -2.7344    0.1209    0.0000 C   0  0  0  0  0  0  0  0  0  0  0  0
   -5.3599    1.6334    0.0000 C   0  0  0  0  0  0  0  0  0  0  0  0
   -4.0653   -0.6049    0.0000 C   0  0  0  0  0  0  0  0  0  0  0  0
   -5.3962    0.1693    0.0000 C   0  0  0  0  0  0  0  0  0  0  0  0
  1  2  2  0
  2  3  1  0
  2  4  1  0
  3  5  1  0
  4  6  1  0
  5  7  1  0
  6  8  1  0
  6  9  1  0
  6 10  1  0
  9 11  1  0
 10 12  1  0
 11 13  1  0
 12 13  1  0
M  END
>  <Structure No>
173

>  <Molecule Name>
(1-Hydroxy-cyclohexyl)-acetic acid ethyl ester

>  <PubChem CID>
219250

>  <SMILES>
CCOC(CC1(CCCCC1)O)=O

>  <InChIKey>
VEWIMVJKELSRSO-UHFFFAOYSA-N

>  <Molecular Formula>
C10H18O3

>  <Target Organism>
Aedes aegypti

>  <Reference DOI>
10.3390/toxics11100837

>  <Activity Label>
1

>  <Repellency>
Active

>  <IUPAC>
ethyl 2-(1-hydroxycyclohexyl)acetate

>  <Common name>
(1-Hydroxy-cyclohexyl)-acetic acid ethyl ester

$$$$
Compound 174
     RDKit          2D

 13 13  0  0  0  0  0  0  0  0999 V2000
    0.0000    0.0000    0.0000 O   0  0  0  0  0  0  0  0  0  0  0  0
   -1.3121   -0.7276    0.0000 C   0  0  0  0  0  0  0  0  0  0  0  0
   -0.0357    1.5149    0.0000 C   0  0  0  0  0  0  0  0  0  0  0  0
   -2.6243    0.0357    0.0000 C   0  0  0  0  0  0  0  0  0  0  0  0
   -1.3479   -2.1710    0.0000 C   0  0  0  0  0  0  0  0  0  0  0  0
   -1.3479    2.2784    0.0000 C   0  0  0  0  0  0  0  0  0  0  0  0
    1.2048    2.2784    0.0000 C   0  0  0  0  0  0  0  0  0  0  0  0
   -2.6601    1.5507    0.0000 C   0  0  0  0  0  0  0  0  0  0  0  0
   -3.9365   -0.6918    0.0000 C   0  0  0  0  0  0  0  0  0  0  0  0
   -5.2487    0.0596    0.0000 O   0  0  0  0  0  0  0  0  0  0  0  0
   -6.5608   -0.6680    0.0000 C   0  0  0  0  0  0  0  0  0  0  0  0
   -7.8730    0.0954    0.0000 C   0  0  0  0  0  0  0  0  0  0  0  0
   -9.1852   -0.6322    0.0000 O   0  0  0  0  0  0  0  0  0  0  0  0
  1  2  1  0
  1  3  1  0
  2  4  1  0
  2  5  1  0
  3  6  1  0
  3  7  1  0
  4  8  1  0
  4  9  1  0
  9 10  1  0
 10 11  1  0
 11 12  1  0
 12 13  1  0
  6  8  1  0
M  END
>  <Structure No>
174

>  <Molecule Name>
2,6-Dimethyl-3-(2-hydroxyethoxymethyl)tetrahydropyran

>  <PubChem CID>
Not found

>  <SMILES>
CC1OC(C)C(COCCO)CC1

>  <InChIKey>
HMJJVBGLJVZMOJ-UHFFFAOYSA-N

>  <Molecular Formula>
C10H20O3

>  <Target Organism>
Aedes aegypti

>  <Reference DOI>
10.3390/toxics11100837

>  <Activity Label>
1

>  <Repellency>
Active

>  <IUPAC>


>  <Common name>
2,6-Dimethyl-3-(2-hydroxyethoxymethyl)tetrahydropyran

$$$$
Compound 175
     RDKit          2D

 13 13  0  0  0  0  0  0  0  0999 V2000
    0.0000    0.0000    0.0000 O   0  0  0  0  0  0  0  0  0  0  0  0
   -0.0118    1.5093    0.0000 C   0  0  0  0  0  0  0  0  0  0  0  0
    1.2835   -0.7368    0.0000 C   0  0  0  0  0  0  0  0  0  0  0  0
    1.2716    2.2700    0.0000 C   0  0  0  0  0  0  0  0  0  0  0  0
   -1.3192    2.2700    0.0000 C   0  0  0  0  0  0  0  0  0  0  0  0
    2.5552    1.5331    0.0000 O   0  0  0  0  0  0  0  0  0  0  0  0
    1.2597    3.7793    0.0000 C   0  0  0  0  0  0  0  0  0  0  0  0
   -1.3311    3.7793    0.0000 C   0  0  0  0  0  0  0  0  0  0  0  0
   -0.0475    4.5281    0.0000 C   0  0  0  0  0  0  0  0  0  0  0  0
   -2.6384    4.5281    0.0000 C   0  0  0  0  0  0  0  0  0  0  0  0
   -3.9457    3.7912    0.0000 C   0  0  0  0  0  0  0  0  0  0  0  0
   -5.2531    4.5400    0.0000 C   0  0  0  0  0  0  0  0  0  0  0  0
   -6.5604    3.8031    0.0000 O   0  0  0  0  0  0  0  0  0  0  0  0
  1  2  1  0
  1  3  1  0
  2  4  2  0
  2  5  1  0
  4  6  1  0
  4  7  1  0
  5  8  2  0
  7  9  2  0
  8 10  1  0
 10 11  2  0
 11 12  1  0
 12 13  1  0
  8  9  1  0
M  END
>  <Structure No>
175

>  <Molecule Name>
CONIFERYL ALCOHOL

>  <PubChem CID>
1549095

>  <SMILES>
COc(cc(/C=C/CO)cc1)c1O

>  <InChIKey>
JMFRWRFFLBVWSI-NSCUHMNNSA-N

>  <Molecular Formula>
C10H12O3

>  <Target Organism>
Aedes albopictus.

>  <Reference DOI>
10.1002/cmdc.202200271

>  <Activity Label>
1

>  <Repellency>
Active

>  <IUPAC>


>  <Common name>
CONIFERYL ALCOHOL

$$$$
Compound 176
     RDKit          2D

 13 13  0  0  0  0  0  0  0  0999 V2000
    0.0000    0.0000    0.0000 O   0  0  0  0  0  0  0  0  0  0  0  0
   -1.3127   -0.7160    0.0000 N   0  0  0  0  0  0  0  0  0  0  0  0
   -1.3486   -2.1601    0.0000 O   0  0  0  0  0  0  0  0  0  0  0  0
   -2.6255    0.0358    0.0000 C   0  0  0  0  0  0  0  0  0  0  0  0
   -2.6613    1.5514    0.0000 C   0  0  0  0  0  0  0  0  0  0  0  0
   -3.9383   -0.6802    0.0000 C   0  0  0  0  0  0  0  0  0  0  0  0
   -2.6613   -1.4082    0.0000 C   0  0  0  0  0  0  0  0  0  0  0  0
   -3.9741    2.3152    0.0000 O   0  0  0  0  0  0  0  0  0  0  0  0
   -5.2511    0.0716    0.0000 O   0  0  0  0  0  0  0  0  0  0  0  0
   -5.2869    1.5992    0.0000 C   0  0  0  0  0  0  0  0  0  0  0  0
   -6.5997    2.3630    0.0000 C   0  0  0  0  0  0  0  0  0  0  0  0
   -6.6355    3.8787    0.0000 C   0  0  0  0  0  0  0  0  0  0  0  0
   -7.9125    1.6350    0.0000 C   0  0  0  0  0  0  0  0  0  0  0  0
  1  2  2  0
  2  3  1  0
  2  4  1  0
  4  5  1  0
  4  6  1  0
  4  7  1  0
  5  8  1  0
  6  9  1  0
  8 10  1  0
 10 11  1  0
 11 12  1  0
 11 13  1  0
  9 10  1  0
M  CHG  2   2   1   3  -1
M  END
>  <Structure No>
176

>  <Molecule Name>
5-Methyl-5-nitro-2-propan-2-yl-1,3-dioxane

>  <PubChem CID>
13040515

>  <SMILES>
CC(C)C(OC1)OCC1(C)[N+]([O-])=O

>  <InChIKey>
GDCZMRZHWQTAHN-UHFFFAOYSA-N

>  <Molecular Formula>
C8H15NO4

>  <Target Organism>
Aedes aegypti

>  <Reference DOI>
10.3390/toxics11100837

>  <Activity Label>
1

>  <Repellency>
Active

>  <IUPAC>
5-methyl-5-nitro-2-propan-2-yl-1,3-dioxane

>  <Common name>
5-Methyl-5-nitro-2-propan-2-yl-1,3-dioxane

$$$$
Compound 177
     RDKit          2D

 13 13  0  0  0  0  0  0  0  0999 V2000
    0.0000    0.0000    0.0000 O   0  0  0  0  0  0  0  0  0  0  0  0
   -0.0359    1.5200    0.0000 C   0  0  0  0  0  0  0  0  0  0  0  0
   -1.3524    2.2740    0.0000 O   0  0  0  0  0  0  0  0  0  0  0  0
    1.2088    2.2740    0.0000 C   0  0  0  0  0  0  0  0  0  0  0  0
   -2.6690    1.5559    0.0000 C   0  0  0  0  0  0  0  0  0  0  0  0
    1.1729    3.7941    0.0000 C   0  0  0  0  0  0  0  0  0  0  0  0
   -3.9856    2.3219    0.0000 C   0  0  0  0  0  0  0  0  0  0  0  0
   -2.7049    0.1077    0.0000 C   0  0  0  0  0  0  0  0  0  0  0  0
    1.1370    5.3141    0.0000 N   0  0  0  0  0  0  0  0  0  0  0  0
   -5.3022    1.6038    0.0000 C   0  0  0  0  0  0  0  0  0  0  0  0
   -4.0215   -0.6104    0.0000 C   0  0  0  0  0  0  0  0  0  0  0  0
   -5.3381    0.1555    0.0000 C   0  0  0  0  0  0  0  0  0  0  0  0
   -6.6187    2.3698    0.0000 C   0  0  0  0  0  0  0  0  0  0  0  0
  1  2  2  0
  2  3  1  0
  2  4  1  0
  3  5  1  0
  4  6  1  0
  5  7  1  0
  5  8  1  0
  6  9  3  0
  7 10  1  0
  8 11  1  0
 10 12  1  0
 10 13  1  0
 11 12  1  0
M  END
>  <Structure No>
177

>  <Molecule Name>
(3-Methylcyclohexyl) 2-cyanoacetate

>  <PubChem CID>
144135633

>  <SMILES>
CC(CCC1)CC1OC(CC#N)=O

>  <InChIKey>
CTDKLJRGUUEWKD-UHFFFAOYSA-N

>  <Molecular Formula>
C10H15NO2

>  <Target Organism>
Aedes aegypti

>  <Reference DOI>
10.3390/toxics11100837

>  <Activity Label>
1

>  <Repellency>
Active

>  <IUPAC>
(3-methylcyclohexyl) 2-cyanoacetate

>  <Common name>
(3-Methylcyclohexyl) 2-cyanoacetate

$$$$
Compound 178
     RDKit          2D

 13 13  0  0  0  0  0  0  0  0999 V2000
    0.0000    0.0000    0.0000 O   0  0  0  0  0  0  0  0  0  0  0  0
   -0.0359    1.5218    0.0000 C   0  0  0  0  0  0  0  0  0  0  0  0
   -1.3541    2.2768    0.0000 O   0  0  0  0  0  0  0  0  0  0  0  0
    1.2103    2.2768    0.0000 C   0  0  0  0  0  0  0  0  0  0  0  0
   -2.6722    1.5578    0.0000 C   0  0  0  0  0  0  0  0  0  0  0  0
    1.1743    3.7987    0.0000 C   0  0  0  0  0  0  0  0  0  0  0  0
   -3.9904    2.3247    0.0000 C   0  0  0  0  0  0  0  0  0  0  0  0
   -2.7082    0.1078    0.0000 C   0  0  0  0  0  0  0  0  0  0  0  0
    1.1384    5.3205    0.0000 N   0  0  0  0  0  0  0  0  0  0  0  0
   -5.3086    1.6057    0.0000 C   0  0  0  0  0  0  0  0  0  0  0  0
   -4.0263   -0.6111    0.0000 C   0  0  0  0  0  0  0  0  0  0  0  0
   -5.3445    0.1557    0.0000 C   0  0  0  0  0  0  0  0  0  0  0  0
   -6.6627   -0.5632    0.0000 C   0  0  0  0  0  0  0  0  0  0  0  0
  1  2  2  0
  2  3  1  0
  2  4  1  0
  3  5  1  0
  4  6  1  0
  5  7  1  0
  5  8  1  0
  6  9  3  0
  7 10  1  0
  8 11  1  0
 10 12  1  0
 12 13  1  0
 11 12  1  0
M  END
>  <Structure No>
178

>  <Molecule Name>
(4-Methylcyclohexyl) 2-cyanoacetate

>  <PubChem CID>
347844

>  <SMILES>
CC(CC1)CCC1OC(CC#N)=O

>  <InChIKey>
CMCOEZDHRFGTBM-UHFFFAOYSA-N

>  <Molecular Formula>
C10H15NO2

>  <Target Organism>
Aedes aegypti

>  <Reference DOI>
10.3390/toxics11100837

>  <Activity Label>
1

>  <Repellency>
Active

>  <IUPAC>
(4-methylcyclohexyl) 2-cyanoacetate

>  <Common name>
(4-Methylcyclohexyl) 2-cyanoacetate

$$$$
Compound 179
     RDKit          2D

 13 13  0  0  0  0  0  0  0  0999 V2000
    0.0000    0.0000    0.0000 O   0  0  0  0  0  0  0  0  0  0  0  0
   -0.0365   -1.4730    0.0000 C   0  0  0  0  0  0  0  0  0  0  0  0
   -1.3756   -2.2156    0.0000 O   0  0  0  0  0  0  0  0  0  0  0  0
    1.2295   -2.2156    0.0000 C   0  0  0  0  0  0  0  0  0  0  0  0
   -2.7148   -1.4243    0.0000 C   0  0  0  0  0  0  0  0  0  0  0  0
    1.1930   -3.6887    0.0000 C   0  0  0  0  0  0  0  0  0  0  0  0
    2.4956   -1.4243    0.0000 C   0  0  0  0  0  0  0  0  0  0  0  0
   -2.7513    0.1217    0.0000 C   0  0  0  0  0  0  0  0  0  0  0  0
   -4.0539   -2.1669    0.0000 C   0  0  0  0  0  0  0  0  0  0  0  0
   -0.1460   -4.4191    0.0000 N   0  0  0  0  0  0  0  0  0  0  0  0
    2.4591   -4.4313    0.0000 C   0  0  0  0  0  0  0  0  0  0  0  0
    3.7617   -2.1669    0.0000 C   0  0  0  0  0  0  0  0  0  0  0  0
    3.7252   -3.6400    0.0000 C   0  0  0  0  0  0  0  0  0  0  0  0
  1  2  2  0
  2  3  1  0
  2  4  1  0
  3  5  1  0
  4  6  2  0
  4  7  1  0
  5  8  1  0
  5  9  1  0
  6 10  1  0
  6 11  1  0
  7 12  2  0
 11 13  2  0
 12 13  1  0
M  END
>  <Structure No>
179

>  <Molecule Name>
Isopropyl anthranilate

>  <PubChem CID>
87499

>  <SMILES>
CC(C)OC(c(cccc1)c1N)=O

>  <InChIKey>
XKOZHFJYXAQZJX-UHFFFAOYSA-N

>  <Molecular Formula>
C10H13NO2

>  <Target Organism>
Aedes aegypti

>  <Reference DOI>
10.3390/toxics11100837

>  <Activity Label>
1

>  <Repellency>
Active

>  <IUPAC>
propan-2-yl 2-aminobenzoate

>  <Common name>
Isopropyl anthranilate

$$$$
Compound 180
     RDKit          2D

 13 13  0  0  0  0  0  0  0  0999 V2000
    0.0000    0.0000    0.0000 O   0  0  0  0  0  0  0  0  0  0  0  0
   -0.0349   -1.4784    0.0000 C   0  0  0  0  0  0  0  0  0  0  0  0
    1.2455   -2.1768    0.0000 N   0  0  0  0  0  0  0  0  0  0  0  0
   -1.3852   -2.1768    0.0000 C   0  0  0  0  0  0  0  0  0  0  0  0
    1.2106   -3.6552    0.0000 C   0  0  0  0  0  0  0  0  0  0  0  0
    2.5260   -1.3736    0.0000 C   0  0  0  0  0  0  0  0  0  0  0  0
   -2.7356   -1.3736    0.0000 C   0  0  0  0  0  0  0  0  0  0  0  0
   -0.1396   -4.3537    0.0000 C   0  0  0  0  0  0  0  0  0  0  0  0
    2.4911   -4.3769    0.0000 C   0  0  0  0  0  0  0  0  0  0  0  0
   -4.0859   -2.0720    0.0000 C   0  0  0  0  0  0  0  0  0  0  0  0
   -0.1746   -5.8321    0.0000 C   0  0  0  0  0  0  0  0  0  0  0  0
    2.4562   -5.8554    0.0000 C   0  0  0  0  0  0  0  0  0  0  0  0
    1.1058   -6.5771    0.0000 C   0  0  0  0  0  0  0  0  0  0  0  0
  1  2  2  0
  2  3  1  0
  2  4  1  0
  3  5  1  0
  3  6  1  0
  4  7  2  0
  5  8  2  0
  5  9  1  0
  7 10  1  0
  8 11  1  0
  9 12  2  0
 11 13  2  0
 12 13  1  0
M  END
>  <Structure No>
180

>  <Molecule Name>
N-Methylcrotonanilide

>  <PubChem CID>
6474175

>  <SMILES>
C/C=C/C(N(C)c1ccccc1)=O

>  <InChIKey>
NULYBZJUSXRPGA-XVNBXDOJSA-N

>  <Molecular Formula>
C11H13NO

>  <Target Organism>
Aedes aegypti

>  <Reference DOI>
10.3390/toxics11100837

>  <Activity Label>
1

>  <Repellency>
Active

>  <IUPAC>


>  <Common name>
N-Methylcrotonanilide

$$$$
Compound 181
     RDKit          2D

 13 13  0  0  0  0  0  0  0  0999 V2000
    0.0000    0.0000    0.0000 O   0  0  0  0  0  0  0  0  0  0  0  0
   -0.0349   -1.4784    0.0000 C   0  0  0  0  0  0  0  0  0  0  0  0
    1.2455   -2.1768    0.0000 N   0  0  0  0  0  0  0  0  0  0  0  0
   -1.3852   -2.1768    0.0000 C   0  0  0  0  0  0  0  0  0  0  0  0
    1.2106   -3.6552    0.0000 C   0  0  0  0  0  0  0  0  0  0  0  0
    2.5260   -1.3736    0.0000 C   0  0  0  0  0  0  0  0  0  0  0  0
   -2.7356   -1.3736    0.0000 C   0  0  0  0  0  0  0  0  0  0  0  0
   -0.1396   -4.3537    0.0000 C   0  0  0  0  0  0  0  0  0  0  0  0
    2.4911   -4.3769    0.0000 C   0  0  0  0  0  0  0  0  0  0  0  0
   -4.0859   -2.0720    0.0000 C   0  0  0  0  0  0  0  0  0  0  0  0
   -0.1746   -5.8321    0.0000 C   0  0  0  0  0  0  0  0  0  0  0  0
    2.4562   -5.8554    0.0000 C   0  0  0  0  0  0  0  0  0  0  0  0
    1.1058   -6.5771    0.0000 C   0  0  0  0  0  0  0  0  0  0  0  0
  1  2  2  0
  2  3  1  0
  2  4  1  0
  3  5  1  0
  3  6  1  0
  4  7  1  0
  5  8  2  0
  5  9  1  0
  7 10  1  0
  8 11  1  0
  9 12  2  0
 11 13  2  0
 12 13  1  0
M  END
>  <Structure No>
181

>  <Molecule Name>
N-methyl-N-phenylbutanamide

>  <PubChem CID>
221441

>  <SMILES>
CCCC(N(C)c1ccccc1)=O

>  <InChIKey>
NGFPEEPVJGCERE-UHFFFAOYSA-N

>  <Molecular Formula>
C11H15NO

>  <Target Organism>
Aedes aegypti

>  <Reference DOI>
10.3390/toxics11100837

>  <Activity Label>
1

>  <Repellency>
Active

>  <IUPAC>
N-methyl-N-phenylbutanamide

>  <Common name>
N-methyl-N-phenylbutanamide

$$$$
Compound 182
     RDKit          2D

 13 13  0  0  0  0  0  0  0  0999 V2000
    0.0000    0.0000    0.0000 O   0  0  0  0  0  0  0  0  0  0  0  0
   -1.3265    0.7597    0.0000 C   0  0  0  0  0  0  0  0  0  0  0  0
   -2.6531    0.0241    0.0000 N   0  0  0  0  0  0  0  0  0  0  0  0
   -1.3627    2.2913    0.0000 C   0  0  0  0  0  0  0  0  0  0  0  0
   -2.6893   -1.4351    0.0000 C   0  0  0  0  0  0  0  0  0  0  0  0
   -3.9796    0.7959    0.0000 C   0  0  0  0  0  0  0  0  0  0  0  0
   -1.4351   -2.1707    0.0000 C   0  0  0  0  0  0  0  0  0  0  0  0
   -4.0158   -2.1707    0.0000 C   0  0  0  0  0  0  0  0  0  0  0  0
   -4.0158    2.3275    0.0000 C   0  0  0  0  0  0  0  0  0  0  0  0
   -1.4712   -3.6299    0.0000 C   0  0  0  0  0  0  0  0  0  0  0  0
   -4.0520   -3.6299    0.0000 C   0  0  0  0  0  0  0  0  0  0  0  0
   -5.3424    3.0993    0.0000 C   0  0  0  0  0  0  0  0  0  0  0  0
   -2.7978   -4.3656    0.0000 C   0  0  0  0  0  0  0  0  0  0  0  0
  1  2  2  0
  2  3  1  0
  2  4  1  0
  3  5  1  0
  3  6  1  0
  5  7  2  0
  5  8  1  0
  6  9  1  0
  7 10  1  0
  8 11  2  0
  9 12  1  0
 10 13  2  0
 11 13  1  0
M  END
>  <Structure No>
182

>  <Molecule Name>
N-Propylacetanilide

>  <PubChem CID>
17098

>  <SMILES>
CCCN(C(C)=O)c1ccccc1

>  <InChIKey>
PREAZHGTUOIWRL-UHFFFAOYSA-N

>  <Molecular Formula>
C11H15NO

>  <Target Organism>
Aedes aegypti

>  <Reference DOI>
10.1371/annotation/1dc83f26-8045-4b63-8a86-24c7b71a7f79

>  <Activity Label>
1

>  <Repellency>
Active

>  <IUPAC>
N-phenyl-N-propylacetamide

>  <Common name>
N-Propylacetanilide

$$$$
Compound 183
     RDKit          2D

 13 13  0  0  0  0  0  0  0  0999 V2000
    0.0000    0.0000    0.0000 O   0  0  0  0  0  0  0  0  0  0  0  0
   -1.3212    0.7567    0.0000 C   0  0  0  0  0  0  0  0  0  0  0  0
   -1.3572    2.2821    0.0000 N   0  0  0  0  0  0  0  0  0  0  0  0
   -2.6424    0.0240    0.0000 C   0  0  0  0  0  0  0  0  0  0  0  0
   -0.1081    3.0508    0.0000 C   0  0  0  0  0  0  0  0  0  0  0  0
   -2.6785    3.0508    0.0000 C   0  0  0  0  0  0  0  0  0  0  0  0
   -3.9637    0.7927    0.0000 C   0  0  0  0  0  0  0  0  0  0  0  0
   -2.6785   -1.4293    0.0000 C   0  0  0  0  0  0  0  0  0  0  0  0
    1.1410    2.3181    0.0000 C   0  0  0  0  0  0  0  0  0  0  0  0
   -3.9997    2.3181    0.0000 C   0  0  0  0  0  0  0  0  0  0  0  0
   -5.2849    0.0600    0.0000 C   0  0  0  0  0  0  0  0  0  0  0  0
   -3.9997   -2.1620    0.0000 C   0  0  0  0  0  0  0  0  0  0  0  0
   -5.3209   -1.3933    0.0000 C   0  0  0  0  0  0  0  0  0  0  0  0
  1  2  2  0
  2  3  1  0
  2  4  1  0
  3  5  1  0
  3  6  1  0
  4  7  2  0
  4  8  1  0
  5  9  1  0
  6 10  1  0
  7 11  1  0
  8 12  2  0
 11 13  2  0
 12 13  1  0
M  END
>  <Structure No>
183

>  <Molecule Name>
N,N-Diethylbenzamide

>  <PubChem CID>
15542

>  <SMILES>
CCN(CC)C(c1ccccc1)=O

>  <InChIKey>
JLNGEXDJAQASHD-UHFFFAOYSA-N

>  <Molecular Formula>
C11H15NO

>  <Target Organism>
Aedes aegypti

>  <Reference DOI>
10.3390/toxics11100837

>  <Activity Label>
1

>  <Repellency>
Active

>  <IUPAC>
N,N-diethylbenzamide

>  <Common name>
N,N-Diethylbenzamide

$$$$
Compound 184
     RDKit          2D

  0  0  0  0  0  0  0  0  0  0999 V3000
M  V30 BEGIN CTAB
M  V30 COUNTS 13 13 0 0 0
M  V30 BEGIN ATOM
M  V30 1 O 0.000000 0.000000 0.000000 0
M  V30 2 C 1.224800 -0.732200 0.000000 0
M  V30 3 N 2.449600 0.106500 0.000000 0
M  V30 4 C 1.104900 -2.183300 0.000000 0
M  V30 5 C 2.329800 1.797200 0.000000 0
M  V30 6 C 3.674400 -0.612400 0.000000 0
M  V30 7 C -0.359400 -2.915500 0.000000 0
M  V30 8 C 2.329800 -2.915500 0.000000 0
M  V30 9 C 3.554600 2.649300 0.000000 0
M  V30 10 C 4.899200 0.226300 0.000000 0
M  V30 11 C -0.479200 -4.366700 0.000000 0
M  V30 12 C 2.209900 -4.366700 0.000000 0
M  V30 13 C 0.745500 -5.098900 0.000000 0
M  V30 END ATOM
M  V30 BEGIN BOND
M  V30 1 1 2 1 CFG=3
M  V30 2 1 2 3
M  V30 3 1 2 4
M  V30 4 1 3 5
M  V30 5 1 3 6
M  V30 6 2 4 7
M  V30 7 1 4 8
M  V30 8 1 5 9
M  V30 9 1 6 10
M  V30 10 1 7 11
M  V30 11 2 8 12
M  V30 12 2 11 13
M  V30 13 1 12 13
M  V30 END BOND
M  V30 BEGIN COLLECTION
M  V30 MDLV30/STERAC1 ATOMS=(1 2)
M  V30 END COLLECTION
M  V30 END CTAB
M  END
>  <Structure No>
184

>  <Molecule Name>
Diethylamino(phenyl)methanol

>  <PubChem CID>
13220537

>  <SMILES>
CCN(CC)C(c1ccccc1)O

>  <InChIKey>
YYJNVSQQCVUHHI-NSHDSACASA-N

>  <Molecular Formula>
C11H17NO

>  <Target Organism>
Aedes albopictus

>  <Reference DOI>
10.1021/acs.jafc.2c05537

>  <Activity Label>
1

>  <Repellency>
Active

>  <IUPAC>
diethylamino(phenyl)methanol

>  <Common name>
Diethylamino(phenyl)methanol

$$$$
Compound 185
     RDKit          2D

 14 14  0  0  0  0  0  0  0  0999 V2000
    0.0000    0.0000    0.0000 O   0  0  0  0  0  0  0  0  0  0  0  0
    1.2082    0.8405    0.0000 C   0  0  0  0  0  0  0  0  0  0  0  0
    1.0900    2.5084    0.0000 O   0  0  0  0  0  0  0  0  0  0  0  0
    2.4165    0.1181    0.0000 C   0  0  0  0  0  0  0  0  0  0  0  0
    2.2983    3.3489    0.0000 C   0  0  0  0  0  0  0  0  0  0  0  0
    2.2983   -1.3133    0.0000 C   0  0  0  0  0  0  0  0  0  0  0  0
    3.6247    0.9587    0.0000 C   0  0  0  0  0  0  0  0  0  0  0  0
    0.8536   -2.0356    0.0000 C   0  0  0  0  0  0  0  0  0  0  0  0
    3.5065   -2.0356    0.0000 C   0  0  0  0  0  0  0  0  0  0  0  0
    4.8330    0.2495    0.0000 C   0  0  0  0  0  0  0  0  0  0  0  0
   -0.5909   -1.1951    0.0000 O   0  0  0  0  0  0  0  0  0  0  0  0
    0.7354   -3.4671    0.0000 O   0  0  0  0  0  0  0  0  0  0  0  0
    4.7148   -1.1951    0.0000 C   0  0  0  0  0  0  0  0  0  0  0  0
   -0.7091   -4.1895    0.0000 C   0  0  0  0  0  0  0  0  0  0  0  0
  1  2  2  0
  2  3  1  0
  2  4  1  0
  3  5  1  0
  4  6  2  0
  4  7  1  0
  6  8  1  0
  6  9  1  0
  7 10  2  0
  8 11  2  0
  8 12  1  0
  9 13  2  0
 12 14  1  0
 10 13  1  0
M  END
>  <Structure No>
185

>  <Molecule Name>
Dimethyl Phthalate

>  <PubChem CID>
8554

>  <SMILES>
COC(c(cccc1)c1C(OC)=O)=O

>  <InChIKey>
NIQCNGHVCWTJSM-UHFFFAOYSA-N

>  <Molecular Formula>
C10H10O4

>  <Target Organism>
Anopheles spp.

>  <Reference DOI>
10.1186/s12936-019-3064-8

>  <Activity Label>
1

>  <Repellency>
Active

>  <IUPAC>
dimethyl benzene-1,2-dicarboxylate

>  <Common name>
Dimethyl Phthalate

$$$$
Compound 186
     RDKit          2D

 14 14  0  0  0  0  0  0  0  0999 V2000
    0.0000    0.0000    0.0000 O   0  0  0  0  0  0  0  0  0  0  0  0
   -1.3268   -0.7357    0.0000 C   0  0  0  0  0  0  0  0  0  0  0  0
   -2.6536    0.0361    0.0000 O   0  0  0  0  0  0  0  0  0  0  0  0
   -1.3630   -2.1953    0.0000 C   0  0  0  0  0  0  0  0  0  0  0  0
   -3.9805   -0.6996    0.0000 C   0  0  0  0  0  0  0  0  0  0  0  0
   -2.6898   -1.4233    0.0000 O   0  0  0  0  0  0  0  0  0  0  0  0
   -2.6898   -2.9311    0.0000 C   0  0  0  0  0  0  0  0  0  0  0  0
   -0.1085   -2.9190    0.0000 C   0  0  0  0  0  0  0  0  0  0  0  0
   -5.3073    0.0723    0.0000 C   0  0  0  0  0  0  0  0  0  0  0  0
   -2.7260   -4.3906    0.0000 C   0  0  0  0  0  0  0  0  0  0  0  0
   -0.1447   -4.3785    0.0000 C   0  0  0  0  0  0  0  0  0  0  0  0
   -5.3435    1.6042    0.0000 O   0  0  0  0  0  0  0  0  0  0  0  0
   -6.6341   -0.6634    0.0000 C   0  0  0  0  0  0  0  0  0  0  0  0
   -1.4715   -5.1143    0.0000 C   0  0  0  0  0  0  0  0  0  0  0  0
  1  2  2  0
  2  3  1  0
  2  4  1  0
  3  5  1  0
  4  6  1  0
  4  7  1  0
  4  8  1  0
  5  9  1  0
  7 10  1  0
  8 11  1  0
  9 12  2  0
  9 13  1  0
 10 14  1  0
 11 14  1  0
M  END
>  <Structure No>
186

>  <Molecule Name>
2-Oxopropyl 1-hydroxycyclohexane-1-carboxylate

>  <PubChem CID>
55601701

>  <SMILES>
CC(COC(C1(CCCCC1)O)=O)=O

>  <InChIKey>
KTFWMELRPMXQHE-UHFFFAOYSA-N

>  <Molecular Formula>
C10H16O4

>  <Target Organism>
Aedes aegypti

>  <Reference DOI>
10.3390/toxics11100837

>  <Activity Label>
1

>  <Repellency>
Active

>  <IUPAC>
2-oxopropyl 1-hydroxycyclohexane-1-carboxylate

>  <Common name>
2-Oxopropyl 1-hydroxycyclohexane-1-carboxylate

$$$$
Compound 187
     RDKit          2D

 14 14  0  0  0  0  0  0  0  0999 V2000
    0.0000    0.0000    0.0000 O   0  0  0  0  0  0  0  0  0  0  0  0
   -0.0368   -1.4861    0.0000 C   0  0  0  0  0  0  0  0  0  0  0  0
    1.2404   -2.2353    0.0000 C   0  0  0  0  0  0  0  0  0  0  0  0
   -1.3878   -2.2353    0.0000 C   0  0  0  0  0  0  0  0  0  0  0  0
    1.2036   -3.7214    0.0000 C   0  0  0  0  0  0  0  0  0  0  0  0
   -1.4247   -3.7214    0.0000 C   0  0  0  0  0  0  0  0  0  0  0  0
   -0.1473   -4.4706    0.0000 O   0  0  0  0  0  0  0  0  0  0  0  0
    2.4809   -4.4706    0.0000 C   0  0  0  0  0  0  0  0  0  0  0  0
   -2.9845   -3.6846    0.0000 C   0  0  0  0  0  0  0  0  0  0  0  0
   -2.1984   -4.9988    0.0000 C   0  0  0  0  0  0  0  0  0  0  0  0
    2.4441   -5.9568    0.0000 O   0  0  0  0  0  0  0  0  0  0  0  0
    3.7583   -3.6969    0.0000 O   0  0  0  0  0  0  0  0  0  0  0  0
    5.0356   -4.4461    0.0000 C   0  0  0  0  0  0  0  0  0  0  0  0
    6.3129   -3.6723    0.0000 C   0  0  0  0  0  0  0  0  0  0  0  0
  1  2  2  0
  2  3  1  0
  2  4  1  0
  3  5  2  0
  4  6  1  0
  5  7  1  0
  5  8  1  0
  6  9  1  0
  6 10  1  0
  8 11  2  0
  8 12  1  0
 12 13  1  0
 13 14  1  0
  6  7  1  0
M  END
>  <Structure No>
187

>  <Molecule Name>
Ethyl 2,2-dimethyl-4-oxo-3,4-dihydro-2h-pyran-6-carboxylate

>  <PubChem CID>
225938

>  <SMILES>
CCOC(C(OC(C)(C)C1)=CC1=O)=O

>  <InChIKey>
XNMFBVRJDPJTDH-UHFFFAOYSA-N

>  <Molecular Formula>
C10H14O4

>  <Target Organism>
Aedes aegypti

>  <Reference DOI>
10.1371/annotation/1dc83f26-8045-4b63-8a86-24c7b71a7f79

>  <Activity Label>
1

>  <Repellency>
Active

>  <IUPAC>
ethyl 2,2-dimethyl-4-oxo-3H-pyran-6-carboxylate

>  <Common name>
Ethyl 2,2-dimethyl-4-oxo-3,4-dihydro-2h-pyran-6-carboxylate

$$$$
Compound 188
     RDKit          2D

  0  0  0  0  0  0  0  0  0  0999 V3000
M  V30 BEGIN CTAB
M  V30 COUNTS 14 14 0 0 0
M  V30 BEGIN ATOM
M  V30 1 O 0.000000 0.000000 0.000000 0
M  V30 2 C 1.265300 -0.730000 0.000000 0
M  V30 3 C 1.228800 -2.202200 0.000000 0
M  V30 4 C 2.530700 0.048600 0.000000 0
M  V30 5 C -0.109500 -2.944400 0.000000 0
M  V30 6 C 2.494200 -2.932300 0.000000 0
M  V30 7 C 3.796100 -0.681300 0.000000 0
M  V30 8 O -0.146000 -4.416700 0.000000 0
M  V30 9 C -1.447800 -2.177900 0.000000 0
M  V30 10 C 3.759600 -2.153500 0.000000 0
M  V30 11 O -1.484400 -0.632600 0.000000 0
M  V30 12 O -2.786200 -2.920100 0.000000 0
M  V30 13 C -4.124600 -2.141400 0.000000 0
M  V30 14 C -5.463000 -2.883600 0.000000 0
M  V30 END ATOM
M  V30 BEGIN BOND
M  V30 1 2 1 2
M  V30 2 1 2 3
M  V30 3 1 2 4
M  V30 4 1 3 5 CFG=1
M  V30 5 1 3 6
M  V30 6 1 4 7
M  V30 7 2 5 8
M  V30 8 1 5 9
M  V30 9 1 6 10
M  V30 10 2 9 11
M  V30 11 1 9 12
M  V30 12 1 12 13
M  V30 13 1 13 14
M  V30 14 1 7 10
M  V30 END BOND
M  V30 BEGIN COLLECTION
M  V30 MDLV30/STERAC1 ATOMS=(1 3)
M  V30 END COLLECTION
M  V30 END CTAB
M  END
>  <Structure No>
188

>  <Molecule Name>
Ethyl 2-oxo-2-(2-oxocyclohexyl)acetate

>  <PubChem CID>
219637

>  <SMILES>
CCOC(C(C(CCCC1)C1=O)=O)=O

>  <InChIKey>
SIQOFNOENHOIFT-SSDOTTSWSA-N

>  <Molecular Formula>
C10H14O4

>  <Target Organism>
Aedes aegypti

>  <Reference DOI>
10.3390/toxics11100837

>  <Activity Label>
1

>  <Repellency>
Active

>  <IUPAC>
ethyl 2-oxo-2-(2-oxocyclohexyl)acetate

>  <Common name>
Ethyl 2-oxo-2-(2-oxocyclohexyl)acetate

$$$$
Compound 189
     RDKit          2D

 14 14  0  0  0  0  0  0  0  0999 V2000
    0.0000    0.0000    0.0000 O   0  0  0  0  0  0  0  0  0  0  0  0
    1.2510    0.7578    0.0000 C   0  0  0  0  0  0  0  0  0  0  0  0
   -1.3232    0.7578    0.0000 C   0  0  0  0  0  0  0  0  0  0  0  0
    2.5021    0.0240    0.0000 C   0  0  0  0  0  0  0  0  0  0  0  0
    1.2149    2.2856    0.0000 C   0  0  0  0  0  0  0  0  0  0  0  0
   -2.6465    0.0240    0.0000 C   0  0  0  0  0  0  0  0  0  0  0  0
    3.7532    0.7939    0.0000 C   0  0  0  0  0  0  0  0  0  0  0  0
    2.4660    3.0435    0.0000 C   0  0  0  0  0  0  0  0  0  0  0  0
   -3.9698    0.7939    0.0000 O   0  0  0  0  0  0  0  0  0  0  0  0
    3.7171    2.3217    0.0000 C   0  0  0  0  0  0  0  0  0  0  0  0
   -5.2930    0.0601    0.0000 C   0  0  0  0  0  0  0  0  0  0  0  0
   -6.6163    0.8300    0.0000 C   0  0  0  0  0  0  0  0  0  0  0  0
   -7.9396    0.0962    0.0000 C   0  0  0  0  0  0  0  0  0  0  0  0
   -6.6524    2.3578    0.0000 C   0  0  0  0  0  0  0  0  0  0  0  0
  1  2  1  0
  1  3  1  0
  2  4  2  0
  2  5  1  0
  3  6  1  0
  4  7  1  0
  5  8  2  0
  6  9  1  0
  7 10  2  0
  9 11  1  0
 11 12  1  0
 12 13  2  0
 12 14  1  0
  8 10  1  0
M  END
>  <Structure No>
189

>  <Molecule Name>
2-(2-Methylprop-2-enoxy)ethoxybenzene

>  <PubChem CID>
173375069

>  <SMILES>
CC(COCCOc1ccccc1)=C

>  <InChIKey>
XQLLRJLGABLVQE-UHFFFAOYSA-N

>  <Molecular Formula>
C12H16O2

>  <Target Organism>
Aedes aegypti

>  <Reference DOI>
10.3390/toxics11100837

>  <Activity Label>
1

>  <Repellency>
Active

>  <IUPAC>
2-(2-methylprop-2-enoxy)ethoxybenzene

>  <Common name>
2-(2-Methylprop-2-enoxy)ethoxybenzene

$$$$
Compound 190
     RDKit          2D

  0  0  0  0  0  0  0  0  0  0999 V3000
M  V30 BEGIN CTAB
M  V30 COUNTS 14 14 0 0 0
M  V30 BEGIN ATOM
M  V30 1 O 0.000000 0.000000 0.000000 0
M  V30 2 C 1.273000 -0.746600 0.000000 0
M  V30 3 C -1.346400 -0.746600 0.000000 0
M  V30 4 C 2.546000 0.036700 0.000000 0
M  V30 5 C 1.236200 -2.227700 0.000000 0
M  V30 6 C -2.692900 0.024400 0.000000 0
M  V30 7 C 3.819000 -0.697700 0.000000 0
M  V30 8 C 2.509300 -2.962200 0.000000 0
M  V30 9 O -4.039300 -0.709900 0.000000 0
M  V30 10 C 3.782300 -2.178800 0.000000 0
M  V30 11 C 5.055300 -2.925400 0.000000 0
M  V30 12 C 6.328300 -2.142000 0.000000 0
M  V30 13 C 5.018600 -4.406600 0.000000 0
M  V30 14 C 6.291600 -0.587500 0.000000 0
M  V30 END ATOM
M  V30 BEGIN BOND
M  V30 1 1 1 2
M  V30 2 1 1 3
M  V30 3 2 2 4
M  V30 4 1 2 5
M  V30 5 1 3 6
M  V30 6 1 4 7
M  V30 7 2 5 8
M  V30 8 1 6 9
M  V30 9 2 7 10
M  V30 10 1 10 11
M  V30 11 1 11 12
M  V30 12 1 11 13 CFG=3
M  V30 13 1 12 14
M  V30 14 1 8 10
M  V30 END BOND
M  V30 BEGIN COLLECTION
M  V30 MDLV30/STERAC1 ATOMS=(1 11)
M  V30 END COLLECTION
M  V30 END CTAB
M  END
>  <Structure No>
190

>  <Molecule Name>
2-(4-sec-Butylphenoxy)ethanol

>  <PubChem CID>
95317

>  <SMILES>
CCC(C)c(cc1)ccc1OCCO

>  <InChIKey>
XMPKZDNQLSEWRU-JTQLQIEISA-N

>  <Molecular Formula>
C12H18O2

>  <Target Organism>
Aedes aegypti

>  <Reference DOI>
10.3390/toxics11100837

>  <Activity Label>
1

>  <Repellency>
Active

>  <IUPAC>
2-(4-butan-2-ylphenoxy)ethanol

>  <Common name>
2-(4-sec-Butylphenoxy)ethanol

$$$$
Compound 191
     RDKit          2D

 14 14  0  0  0  0  0  0  0  0999 V2000
    0.0000    0.0000    0.0000 O   0  0  0  0  0  0  0  0  0  0  0  0
   -0.0362    1.5350    0.0000 C   0  0  0  0  0  0  0  0  0  0  0  0
   -1.3658    2.3086    0.0000 O   0  0  0  0  0  0  0  0  0  0  0  0
    1.2208    2.3086    0.0000 C   0  0  0  0  0  0  0  0  0  0  0  0
   -2.6954    1.5713    0.0000 C   0  0  0  0  0  0  0  0  0  0  0  0
    2.4778    1.5713    0.0000 C   0  0  0  0  0  0  0  0  0  0  0  0
   -4.0250    2.3449    0.0000 C   0  0  0  0  0  0  0  0  0  0  0  0
    3.7349    2.3449    0.0000 C   0  0  0  0  0  0  0  0  0  0  0  0
   -5.3546    1.6076    0.0000 C   0  0  0  0  0  0  0  0  0  0  0  0
    4.9920    1.6076    0.0000 C   0  0  0  0  0  0  0  0  0  0  0  0
    3.6987    3.8800    0.0000 C   0  0  0  0  0  0  0  0  0  0  0  0
    6.2491    2.3811    0.0000 C   0  0  0  0  0  0  0  0  0  0  0  0
    4.9557    4.6536    0.0000 C   0  0  0  0  0  0  0  0  0  0  0  0
    6.2128    3.9162    0.0000 C   0  0  0  0  0  0  0  0  0  0  0  0
  1  2  2  0
  2  3  1  0
  2  4  1  0
  3  5  1  0
  4  6  2  3
  5  7  1  0
  6  8  1  0
  7  9  2  0
  8 10  2  0
  8 11  1  0
 10 12  1  0
 11 13  2  0
 12 14  2  0
 13 14  1  0
M  END
>  <Structure No>
191

>  <Molecule Name>
Prop-2-enyl 3-phenylprop-2-enoate

>  <PubChem CID>
15834

>  <SMILES>
C=CCOC(C=Cc1ccccc1)=O

>  <InChIKey>
KCMITHMNVLRGJU-UHFFFAOYSA-N

>  <Molecular Formula>
C12H12O2

>  <Target Organism>
Aedes aegypti

>  <Reference DOI>
10.3390/toxics11100837

>  <Activity Label>
1

>  <Repellency>
Active

>  <IUPAC>
prop-2-enyl 3-phenylprop-2-enoate

>  <Common name>
Prop-2-enyl 3-phenylprop-2-enoate

$$$$
Compound 192
     RDKit          2D

 14 14  0  0  0  0  0  0  0  0999 V2000
    0.0000    0.0000    0.0000 O   0  0  0  0  0  0  0  0  0  0  0  0
   -0.0366   -1.4771    0.0000 C   0  0  0  0  0  0  0  0  0  0  0  0
   -1.3795   -2.2218    0.0000 O   0  0  0  0  0  0  0  0  0  0  0  0
    1.2330   -2.2218    0.0000 C   0  0  0  0  0  0  0  0  0  0  0  0
   -2.7223   -1.4283    0.0000 C   0  0  0  0  0  0  0  0  0  0  0  0
    2.5026   -1.4283    0.0000 C   0  0  0  0  0  0  0  0  0  0  0  0
   -2.7590    0.1220    0.0000 C   0  0  0  0  0  0  0  0  0  0  0  0
   -4.0652   -2.1730    0.0000 C   0  0  0  0  0  0  0  0  0  0  0  0
    3.7722   -2.1730    0.0000 C   0  0  0  0  0  0  0  0  0  0  0  0
    3.7356   -3.6502    0.0000 C   0  0  0  0  0  0  0  0  0  0  0  0
    5.0419   -1.3795    0.0000 C   0  0  0  0  0  0  0  0  0  0  0  0
    5.0052   -4.3948    0.0000 C   0  0  0  0  0  0  0  0  0  0  0  0
    6.3115   -2.1119    0.0000 C   0  0  0  0  0  0  0  0  0  0  0  0
    6.2749   -3.6013    0.0000 C   0  0  0  0  0  0  0  0  0  0  0  0
  1  2  2  0
  2  3  1  0
  2  4  1  0
  3  5  1  0
  4  6  2  3
  5  7  1  0
  5  8  1  0
  6  9  1  0
  9 10  2  0
  9 11  1  0
 10 12  1  0
 11 13  2  0
 12 14  2  0
 13 14  1  0
M  END
>  <Structure No>
192

>  <Molecule Name>
Cinnamic Acid Isopropyl Ester

>  <PubChem CID>
24521

>  <SMILES>
CC(C)OC(C=Cc1ccccc1)=O

>  <InChIKey>
RGACABDFLVLVCT-UHFFFAOYSA-N

>  <Molecular Formula>
C12H14O2

>  <Target Organism>
Aedes aegypti

>  <Reference DOI>
10.3390/toxics11100837

>  <Activity Label>
1

>  <Repellency>
Active

>  <IUPAC>
propan-2-yl 3-phenylprop-2-enoate

>  <Common name>
Cinnamic Acid Isopropyl Ester

$$$$
Compound 193
     RDKit          2D

 14 14  0  0  0  0  0  0  0  0999 V2000
    0.0000    0.0000    0.0000 O   0  0  0  0  0  0  0  0  0  0  0  0
   -1.3453   -0.6958    0.0000 C   0  0  0  0  0  0  0  0  0  0  0  0
    1.2757   -0.6958    0.0000 C   0  0  0  0  0  0  0  0  0  0  0  0
   -2.6906    0.1159    0.0000 C   0  0  0  0  0  0  0  0  0  0  0  0
   -1.3800   -2.1687    0.0000 C   0  0  0  0  0  0  0  0  0  0  0  0
    2.5514    0.0927    0.0000 C   0  0  0  0  0  0  0  0  0  0  0  0
   -4.0359   -0.5798    0.0000 C   0  0  0  0  0  0  0  0  0  0  0  0
   -2.7253   -2.8645    0.0000 C   0  0  0  0  0  0  0  0  0  0  0  0
    3.8271   -0.6030    0.0000 C   0  0  0  0  0  0  0  0  0  0  0  0
   -4.0706   -2.0527    0.0000 C   0  0  0  0  0  0  0  0  0  0  0  0
    5.1028    0.1855    0.0000 C   0  0  0  0  0  0  0  0  0  0  0  0
    3.7923   -2.0759    0.0000 C   0  0  0  0  0  0  0  0  0  0  0  0
   -5.4159   -2.7485    0.0000 C   0  0  0  0  0  0  0  0  0  0  0  0
   -5.4507   -4.2214    0.0000 O   0  0  0  0  0  0  0  0  0  0  0  0
  1  2  1  0
  1  3  1  0
  2  4  2  0
  2  5  1  0
  3  6  1  0
  4  7  1  0
  5  8  2  0
  6  9  1  0
  7 10  2  0
  9 11  1  0
  9 12  1  0
 10 13  1  0
 13 14  1  0
  8 10  1  0
M  END
>  <Structure No>
193

>  <Molecule Name>
(4-(Isopentyloxy)phenyl)methanol

>  <PubChem CID>
28561523

>  <SMILES>
CC(C)CCOc1ccc(CO)cc1

>  <InChIKey>
OLJBYGXYVKGWCU-UHFFFAOYSA-N

>  <Molecular Formula>
C12H18O2

>  <Target Organism>
Aedes aegypti

>  <Reference DOI>
10.3390/toxics11100837

>  <Activity Label>
1

>  <Repellency>
Active

>  <IUPAC>
[4-(3-methylbutoxy)phenyl]methanol

>  <Common name>
(4-(Isopentyloxy)phenyl)methanol

$$$$
Compound 194
     RDKit          2D

  0  0  0  0  0  0  0  0  0  0999 V3000
M  V30 BEGIN CTAB
M  V30 COUNTS 14 14 0 0 0
M  V30 BEGIN ATOM
M  V30 1 O 0.000000 0.000000 0.000000 0
M  V30 2 C -0.034800 -1.476300 0.000000 0
M  V30 3 C -1.383300 -2.173800 0.000000 0
M  V30 4 C 1.243800 -2.173800 0.000000 0
M  V30 5 C -2.731700 -1.360000 0.000000 0
M  V30 6 C -1.418200 -3.650100 0.000000 0
M  V30 7 C 2.522500 -1.371700 0.000000 0
M  V30 8 C -4.080200 -2.057500 0.000000 0
M  V30 9 C -2.766600 -4.347600 0.000000 0
M  V30 10 C 3.801200 -2.069100 0.000000 0
M  V30 11 C -4.115100 -3.533800 0.000000 0
M  V30 12 O 5.079900 -1.267000 0.000000 0
M  V30 13 C 3.766300 -3.545500 0.000000 0
M  V30 14 C 6.358600 -1.964500 0.000000 0
M  V30 END ATOM
M  V30 BEGIN BOND
M  V30 1 2 1 2
M  V30 2 1 2 3
M  V30 3 1 2 4
M  V30 4 2 3 5
M  V30 5 1 3 6
M  V30 6 1 4 7
M  V30 7 1 5 8
M  V30 8 2 6 9
M  V30 9 1 7 10
M  V30 10 2 8 11
M  V30 11 1 10 12
M  V30 12 1 10 13 CFG=1
M  V30 13 1 12 14
M  V30 14 1 9 11
M  V30 END BOND
M  V30 BEGIN COLLECTION
M  V30 MDLV30/STERAC1 ATOMS=(1 10)
M  V30 END COLLECTION
M  V30 END CTAB
M  END
>  <Structure No>
194

>  <Molecule Name>
4-Methoxy-1-phenylpentan-1-one

>  <PubChem CID>
21612360

>  <SMILES>
CC(CCC(c1ccccc1)=O)OC

>  <InChIKey>
WXAMMBLLEGRMRG-JTQLQIEISA-N

>  <Molecular Formula>
C12H16O2

>  <Target Organism>
Aedes aegypti

>  <Reference DOI>
10.3390/toxics11100837

>  <Activity Label>
1

>  <Repellency>
Active

>  <IUPAC>
4-methoxy-1-phenylpentan-1-one

>  <Common name>
4-Methoxy-1-phenylpentan-1-one

$$$$
Compound 195
     RDKit          2D

 14 14  0  0  0  0  0  0  0  0999 V2000
    0.0000    0.0000    0.0000 Cl  0  0  0  0  0  0  0  0  0  0  0  0
    1.2816    0.7763    0.0000 C   0  0  0  0  0  0  0  0  0  0  0  0
    1.2447    2.3415    0.0000 C   0  0  0  0  0  0  0  0  0  0  0  0
    2.5633    0.0246    0.0000 C   0  0  0  0  0  0  0  0  0  0  0  0
    3.8450    0.8133    0.0000 O   0  0  0  0  0  0  0  0  0  0  0  0
    5.1266    0.0616    0.0000 C   0  0  0  0  0  0  0  0  0  0  0  0
    5.0897   -1.4295    0.0000 O   0  0  0  0  0  0  0  0  0  0  0  0
    6.4083    0.8503    0.0000 C   0  0  0  0  0  0  0  0  0  0  0  0
    7.6900    0.0985    0.0000 C   0  0  0  0  0  0  0  0  0  0  0  0
    7.6530   -1.3925    0.0000 C   0  0  0  0  0  0  0  0  0  0  0  0
    8.9717    0.8873    0.0000 C   0  0  0  0  0  0  0  0  0  0  0  0
    8.9347   -2.1443    0.0000 C   0  0  0  0  0  0  0  0  0  0  0  0
   10.2533    0.1478    0.0000 C   0  0  0  0  0  0  0  0  0  0  0  0
   10.2164   -1.3679    0.0000 C   0  0  0  0  0  0  0  0  0  0  0  0
  1  2  1  0
  2  3  2  0
  2  4  1  0
  4  5  1  0
  5  6  1  0
  6  7  2  0
  6  8  1  0
  8  9  1  0
  9 10  2  0
  9 11  1  0
 10 12  1  0
 11 13  2  0
 12 14  2  0
 13 14  1  0
M  END
>  <Structure No>
195

>  <Molecule Name>
2-Chloroprop-2-enyl 2-phenylacetate

>  <PubChem CID>
139889166

>  <SMILES>
C=C(COC(Cc1ccccc1)=O)Cl

>  <InChIKey>
PPWYQXJZXLJCBY-UHFFFAOYSA-N

>  <Molecular Formula>
C11H11O2Cl

>  <Target Organism>
Aedes aegypti

>  <Reference DOI>
10.3390/toxics11100837

>  <Activity Label>
1

>  <Repellency>
Active

>  <IUPAC>
2-chloroprop-2-enyl 2-phenylacetate

>  <Common name>
2-Chloroprop-2-enyl 2-phenylacetate

$$$$
Compound 196
     RDKit          2D

 14 14  0  0  0  0  0  0  0  0999 V2000
    0.0000    0.0000    0.0000 O   0  0  0  0  0  0  0  0  0  0  0  0
   -0.0362    1.5349    0.0000 C   0  0  0  0  0  0  0  0  0  0  0  0
   -1.3657    2.3084    0.0000 O   0  0  0  0  0  0  0  0  0  0  0  0
    1.2206    2.3084    0.0000 C   0  0  0  0  0  0  0  0  0  0  0  0
   -2.6951    1.5711    0.0000 C   0  0  0  0  0  0  0  0  0  0  0  0
    2.4776    1.5711    0.0000 C   0  0  0  0  0  0  0  0  0  0  0  0
    1.1844    3.8433    0.0000 C   0  0  0  0  0  0  0  0  0  0  0  0
   -4.0246    2.3446    0.0000 C   0  0  0  0  0  0  0  0  0  0  0  0
    3.8071    2.2359    0.0000 O   0  0  0  0  0  0  0  0  0  0  0  0
    2.5985    0.1208    0.0000 C   0  0  0  0  0  0  0  0  0  0  0  0
   -5.3541    1.6074    0.0000 C   0  0  0  0  0  0  0  0  0  0  0  0
   -4.0609    3.8796    0.0000 C   0  0  0  0  0  0  0  0  0  0  0  0
    4.7619    1.1723    0.0000 C   0  0  0  0  0  0  0  0  0  0  0  0
    4.0246   -0.1571    0.0000 C   0  0  0  0  0  0  0  0  0  0  0  0
  1  2  2  0
  2  3  1  0
  2  4  1  0
  3  5  1  0
  4  6  1  0
  4  7  2  0
  5  8  1  0
  6  9  1  0
  6 10  2  0
  8 11  2  0
  8 12  1  0
  9 13  1  0
 10 14  1  0
 13 14  2  0
M  END
>  <Structure No>
196

>  <Molecule Name>
Furylacrylic acid, methallyl ester

>  <PubChem CID>
Not found

>  <SMILES>
CC(COC(C(c1ccc[o]1)=C)=O)=C

>  <InChIKey>
UELUMXNZYCCCRU-UHFFFAOYSA-N

>  <Molecular Formula>
C11H12O3

>  <Target Organism>
Aedes aegypti

>  <Reference DOI>
10.3390/toxics11100837

>  <Activity Label>
1

>  <Repellency>
Active

>  <IUPAC>


>  <Common name>
Furylacrylic acid, methallyl ester

$$$$
Compound 197
     RDKit          2D

 14 14  0  0  0  0  0  0  0  0999 V2000
    0.0000    0.0000    0.0000 O   0  0  0  0  0  0  0  0  0  0  0  0
   -0.0345   -1.4635    0.0000 C   0  0  0  0  0  0  0  0  0  0  0  0
   -1.3714   -2.1550    0.0000 O   0  0  0  0  0  0  0  0  0  0  0  0
    1.2331   -2.1550    0.0000 C   0  0  0  0  0  0  0  0  0  0  0  0
   -2.7082   -1.3598    0.0000 C   0  0  0  0  0  0  0  0  0  0  0  0
    2.5007   -1.3598    0.0000 C   0  0  0  0  0  0  0  0  0  0  0  0
   -4.0450   -2.0513    0.0000 C   0  0  0  0  0  0  0  0  0  0  0  0
   -5.3818   -1.2446    0.0000 C   0  0  0  0  0  0  0  0  0  0  0  0
   -4.0796   -3.5149    0.0000 C   0  0  0  0  0  0  0  0  0  0  0  0
   -6.7187   -1.9360    0.0000 C   0  0  0  0  0  0  0  0  0  0  0  0
   -5.4164   -4.2063    0.0000 C   0  0  0  0  0  0  0  0  0  0  0  0
   -6.7532   -3.3996    0.0000 C   0  0  0  0  0  0  0  0  0  0  0  0
   -8.0901   -4.0911    0.0000 O   0  0  0  0  0  0  0  0  0  0  0  0
   -8.1246   -5.5547    0.0000 C   0  0  0  0  0  0  0  0  0  0  0  0
  1  2  2  0
  2  3  1  0
  2  4  1  0
  3  5  1  0
  4  6  1  0
  5  7  1  0
  7  8  2  0
  7  9  1  0
  8 10  1  0
  9 11  2  0
 10 12  2  0
 12 13  1  0
 13 14  1  0
 11 12  1  0
M  END
>  <Structure No>
197

>  <Molecule Name>
Anisyl propionate

>  <PubChem CID>
61417

>  <SMILES>
CCC(OCc(cc1)ccc1OC)=O

>  <InChIKey>
YWIJRJQYADFRTL-UHFFFAOYSA-N

>  <Molecular Formula>
C11H14O3

>  <Target Organism>
Aedes aegypti

>  <Reference DOI>
10.3390/toxics11100837

>  <Activity Label>
1

>  <Repellency>
Active

>  <IUPAC>
(4-methoxyphenyl)methyl propanoate

>  <Common name>
Anisyl propionate

$$$$
Compound 198
     RDKit          2D

 14 14  0  0  0  0  0  0  0  0999 V2000
    0.0000    0.0000    0.0000 O   0  0  0  0  0  0  0  0  0  0  0  0
   -0.0366   -1.4793    0.0000 C   0  0  0  0  0  0  0  0  0  0  0  0
   -1.3815   -2.2251    0.0000 O   0  0  0  0  0  0  0  0  0  0  0  0
    1.2348   -2.2251    0.0000 C   0  0  0  0  0  0  0  0  0  0  0  0
   -2.7263   -1.4426    0.0000 C   0  0  0  0  0  0  0  0  0  0  0  0
    1.1981   -3.7044    0.0000 C   0  0  0  0  0  0  0  0  0  0  0  0
    2.5063   -1.4426    0.0000 C   0  0  0  0  0  0  0  0  0  0  0  0
   -2.7630    0.1100    0.0000 C   0  0  0  0  0  0  0  0  0  0  0  0
   -4.0712   -2.1884    0.0000 C   0  0  0  0  0  0  0  0  0  0  0  0
    2.4696   -4.4502    0.0000 C   0  0  0  0  0  0  0  0  0  0  0  0
    3.7778   -2.1884    0.0000 C   0  0  0  0  0  0  0  0  0  0  0  0
    3.7411   -3.6555    0.0000 C   0  0  0  0  0  0  0  0  0  0  0  0
    5.0126   -4.4013    0.0000 O   0  0  0  0  0  0  0  0  0  0  0  0
    6.2841   -3.6066    0.0000 C   0  0  0  0  0  0  0  0  0  0  0  0
  1  2  2  0
  2  3  1  0
  2  4  1  0
  3  5  1  0
  4  6  2  0
  4  7  1  0
  5  8  1  0
  5  9  1  0
  6 10  1  0
  7 11  2  0
 10 12  2  0
 12 13  1  0
 13 14  1  0
 11 12  1  0
M  END
>  <Structure No>
198

>  <Molecule Name>
Propan-2-yl 4-methoxybenzoate

>  <PubChem CID>
243786

>  <SMILES>
CC(C)OC(c(cc1)ccc1OC)=O

>  <InChIKey>
UVCWQNZMIZWZOH-UHFFFAOYSA-N

>  <Molecular Formula>
C11H14O3

>  <Target Organism>
Aedes aegypti

>  <Reference DOI>
10.3390/toxics11100837

>  <Activity Label>
1

>  <Repellency>
Active

>  <IUPAC>
propan-2-yl 4-methoxybenzoate

>  <Common name>
Propan-2-yl 4-methoxybenzoate

$$$$
Compound 199
     RDKit          2D

  0  0  0  0  0  0  0  0  0  0999 V3000
M  V30 BEGIN CTAB
M  V30 COUNTS 14 14 0 0 0
M  V30 BEGIN ATOM
M  V30 1 O 0.000000 0.000000 0.000000 0
M  V30 2 C -0.036200 1.536400 0.000000 0
M  V30 3 O -1.367000 2.310600 0.000000 0
M  V30 4 C 1.221800 2.310600 0.000000 0
M  V30 5 C -2.697700 1.572700 0.000000 0
M  V30 6 C 2.480000 1.572700 0.000000 0
M  V30 7 C -4.028500 2.346900 0.000000 0
M  V30 8 C -2.734000 0.108800 0.000000 0
M  V30 9 C 3.738200 2.346900 0.000000 0
M  V30 10 C -5.359300 1.609000 0.000000 0
M  V30 11 O 3.859100 3.871200 0.000000 0
M  V30 12 C 5.068900 1.754100 0.000000 0
M  V30 13 C 5.286700 4.222100 0.000000 0
M  V30 14 C 6.024600 2.891300 0.000000 0
M  V30 END ATOM
M  V30 BEGIN BOND
M  V30 1 2 1 2
M  V30 2 1 2 3
M  V30 3 1 2 4
M  V30 4 1 3 5
M  V30 5 2 4 6 CFG=2
M  V30 6 1 5 7
M  V30 7 1 5 8 CFG=1
M  V30 8 1 6 9
M  V30 9 1 7 10
M  V30 10 1 9 11
M  V30 11 2 9 12
M  V30 12 1 11 13
M  V30 13 1 12 14
M  V30 14 2 13 14
M  V30 END BOND
M  V30 BEGIN COLLECTION
M  V30 MDLV30/STERAC1 ATOMS=(1 5)
M  V30 END COLLECTION
M  V30 END CTAB
M  END
>  <Structure No>
199

>  <Molecule Name>
Furfurylideneacetic acid, sec-butyl ester

>  <PubChem CID>
Not found

>  <SMILES>
CCC(C)OC(C=Cc1ccc[o]1)=O

>  <InChIKey>
MOOSUKHAVBILRH-VIFPVBQESA-N

>  <Molecular Formula>
C11H14O3

>  <Target Organism>
Aedes aegypti

>  <Reference DOI>
10.3390/toxics11100837

>  <Activity Label>
1

>  <Repellency>
Active

>  <IUPAC>


>  <Common name>
Furfurylideneacetic acid, sec-butyl ester

$$$$
Compound 200
     RDKit          2D

  0  0  0  0  0  0  0  0  0  0999 V3000
M  V30 BEGIN CTAB
M  V30 COUNTS 14 14 0 0 0
M  V30 BEGIN ATOM
M  V30 1 O 0.000000 0.000000 0.000000 0
M  V30 2 C -0.036500 -1.474700 0.000000 0
M  V30 3 O -1.377200 -2.206000 0.000000 0
M  V30 4 C 1.231000 -2.206000 0.000000 0
M  V30 5 C -2.717900 -1.426000 0.000000 0
M  V30 6 O 2.498500 -1.426000 0.000000 0
M  V30 7 C 1.194400 -3.680800 0.000000 0
M  V30 8 C -2.754500 0.121800 0.000000 0
M  V30 9 C -4.058600 -2.157300 0.000000 0
M  V30 10 C -0.146200 -4.412100 0.000000 0
M  V30 11 C 2.462000 -4.424300 0.000000 0
M  V30 12 C -0.182800 -5.886900 0.000000 0
M  V30 13 C 2.425400 -5.899100 0.000000 0
M  V30 14 C 1.084700 -6.630400 0.000000 0
M  V30 END ATOM
M  V30 BEGIN BOND
M  V30 1 2 1 2
M  V30 2 1 2 3
M  V30 3 1 2 4
M  V30 4 1 3 5
M  V30 5 1 4 6 CFG=3
M  V30 6 1 4 7
M  V30 7 1 5 8
M  V30 8 1 5 9
M  V30 9 2 7 10
M  V30 10 1 7 11
M  V30 11 1 10 12
M  V30 12 2 11 13
M  V30 13 2 12 14
M  V30 14 1 13 14
M  V30 END BOND
M  V30 BEGIN COLLECTION
M  V30 MDLV30/STERAC1 ATOMS=(1 4)
M  V30 END COLLECTION
M  V30 END CTAB
M  END
>  <Structure No>
200

>  <Molecule Name>
1-Methylethyl alpha-hydroxybenzeneacetate

>  <PubChem CID>
20071

>  <SMILES>
CC(C)OC(C(c1ccccc1)O)=O

>  <InChIKey>
SCJJMBMUZTUIJU-SNVBAGLBSA-N

>  <Molecular Formula>
C11H14O3

>  <Target Organism>
Aedes aegypti

>  <Reference DOI>
10.3390/toxics11100837

>  <Activity Label>
1

>  <Repellency>
Active

>  <IUPAC>
propan-2-yl 2-hydroxy-2-phenylacetate

>  <Common name>
1-Methylethyl alpha-hydroxybenzeneacetate

$$$$
Compound 201
     RDKit          2D

 14 14  0  0  0  0  0  0  0  0999 V2000
    0.0000    0.0000    0.0000 O   0  0  0  0  0  0  0  0  0  0  0  0
   -0.0363    1.5391    0.0000 C   0  0  0  0  0  0  0  0  0  0  0  0
    1.2240    2.3269    0.0000 O   0  0  0  0  0  0  0  0  0  0  0  0
   -1.3694    2.3269    0.0000 C   0  0  0  0  0  0  0  0  0  0  0  0
    2.4844    1.5997    0.0000 C   0  0  0  0  0  0  0  0  0  0  0  0
   -2.7026    1.5997    0.0000 C   0  0  0  0  0  0  0  0  0  0  0  0
    3.7448    2.3753    0.0000 C   0  0  0  0  0  0  0  0  0  0  0  0
   -1.4422    0.8604    0.0000 O   0  0  0  0  0  0  0  0  0  0  0  0
   -4.0357    2.3753    0.0000 C   0  0  0  0  0  0  0  0  0  0  0  0
   -2.7389    0.1333    0.0000 C   0  0  0  0  0  0  0  0  0  0  0  0
    5.0052    1.6482    0.0000 C   0  0  0  0  0  0  0  0  0  0  0  0
   -5.3688    1.6482    0.0000 C   0  0  0  0  0  0  0  0  0  0  0  0
   -4.0721   -0.5938    0.0000 C   0  0  0  0  0  0  0  0  0  0  0  0
   -5.4052    0.1817    0.0000 C   0  0  0  0  0  0  0  0  0  0  0  0
  1  2  2  0
  2  3  1  0
  2  4  1  0
  3  5  1  0
  4  6  1  0
  5  7  1  0
  6  8  1  0
  6  9  1  0
  6 10  1  0
  7 11  1  0
  9 12  1  0
 10 13  1  0
 12 14  1  0
 13 14  1  0
M  END
>  <Structure No>
201

>  <Molecule Name>
1-Hydroxycyclohexylacetic acid, n-propyl ester

>  <PubChem CID>
245456

>  <SMILES>
CCCOC(CC1(CCCCC1)O)=O

>  <InChIKey>
WFPYXHWJOWNXGG-UHFFFAOYSA-N

>  <Molecular Formula>
C11H20O3

>  <Target Organism>
Aedes aegypti

>  <Reference DOI>
10.3390/toxics11100837

>  <Activity Label>
1

>  <Repellency>
Active

>  <IUPAC>
propyl 2-(1-hydroxycyclohexyl)acetate

>  <Common name>
1-Hydroxycyclohexylacetic acid, n-propyl ester

$$$$
Compound 202
     RDKit          2D

  0  0  0  0  0  0  0  0  0  0999 V3000
M  V30 BEGIN CTAB
M  V30 COUNTS 14 14 0 0 0
M  V30 BEGIN ATOM
M  V30 1 O 0.000000 0.000000 0.000000 0
M  V30 2 C -0.036000 1.526100 0.000000 0
M  V30 3 O -1.357800 2.283100 0.000000 0
M  V30 4 C 1.213600 2.283100 0.000000 0
M  V30 5 C -2.679700 1.562100 0.000000 0
M  V30 6 C 2.463400 1.562100 0.000000 0
M  V30 7 C -4.001500 2.331200 0.000000 0
M  V30 8 O -4.037600 3.857300 0.000000 0
M  V30 9 C -5.323400 1.610200 0.000000 0
M  V30 10 C -6.645200 2.379300 0.000000 0
M  V30 11 C -5.359400 0.156200 0.000000 0
M  V30 12 C -7.967100 1.658300 0.000000 0
M  V30 13 C -6.681300 -0.564700 0.000000 0
M  V30 14 C -8.003100 0.204200 0.000000 0
M  V30 END ATOM
M  V30 BEGIN BOND
M  V30 1 2 1 2
M  V30 2 1 2 3
M  V30 3 1 2 4
M  V30 4 1 3 5
M  V30 5 1 4 6
M  V30 6 1 5 7
M  V30 7 1 7 8 CFG=1
M  V30 8 1 7 9
M  V30 9 2 9 10
M  V30 10 1 9 11
M  V30 11 1 10 12
M  V30 12 2 11 13
M  V30 13 2 12 14
M  V30 14 1 13 14
M  V30 END BOND
M  V30 BEGIN COLLECTION
M  V30 MDLV30/STERAC1 ATOMS=(1 7)
M  V30 END COLLECTION
M  V30 END CTAB
M  END
>  <Structure No>
202

>  <Molecule Name>
2-Hydroxy-2-phenylethyl propanoate

>  <PubChem CID>
14193827

>  <SMILES>
CCC(OCC(c1ccccc1)O)=O

>  <InChIKey>
FFYYFERLDCVSLB-JTQLQIEISA-N

>  <Molecular Formula>
C11H14O3

>  <Target Organism>
Aedes aegypti

>  <Reference DOI>
10.3390/toxics11100837

>  <Activity Label>
1

>  <Repellency>
Active

>  <IUPAC>
(2-hydroxy-2-phenylethyl) propanoate

>  <Common name>
2-Hydroxy-2-phenylethyl propanoate

$$$$
Compound 203
     RDKit          2D

 14 14  0  0  0  0  0  0  0  0999 V2000
    0.0000    0.0000    0.0000 O   0  0  0  0  0  0  0  0  0  0  0  0
   -1.3119   -0.7275    0.0000 C   0  0  0  0  0  0  0  0  0  0  0  0
   -0.0357    1.5147    0.0000 C   0  0  0  0  0  0  0  0  0  0  0  0
   -2.6238    0.0357    0.0000 C   0  0  0  0  0  0  0  0  0  0  0  0
   -1.3477   -2.1706    0.0000 C   0  0  0  0  0  0  0  0  0  0  0  0
   -1.3477    2.2780    0.0000 C   0  0  0  0  0  0  0  0  0  0  0  0
    1.2046    2.2780    0.0000 C   0  0  0  0  0  0  0  0  0  0  0  0
   -2.6596    1.5504    0.0000 C   0  0  0  0  0  0  0  0  0  0  0  0
   -3.9358   -0.6917    0.0000 C   0  0  0  0  0  0  0  0  0  0  0  0
   -5.2477    0.0596    0.0000 O   0  0  0  0  0  0  0  0  0  0  0  0
   -6.5597   -0.6559    0.0000 C   0  0  0  0  0  0  0  0  0  0  0  0
   -7.8716    0.0954    0.0000 C   0  0  0  0  0  0  0  0  0  0  0  0
   -9.1836   -0.6321    0.0000 O   0  0  0  0  0  0  0  0  0  0  0  0
   -7.9074    1.6101    0.0000 C   0  0  0  0  0  0  0  0  0  0  0  0
  1  2  1  0
  1  3  1  0
  2  4  1  0
  2  5  1  0
  3  6  1  0
  3  7  1  0
  4  8  1  0
  4  9  1  0
  9 10  1  0
 10 11  1  0
 11 12  1  0
 12 13  1  0
 12 14  1  0
  6  8  1  0
M  END
>  <Structure No>
203

>  <Molecule Name>
2,6-Dimethyl-3(2-hydroxypropoxymethyl) tetrahydropyran

>  <PubChem CID>
Not found

>  <SMILES>
CC(COCC1C(C)OC(C)CC1)O

>  <InChIKey>
XTZDVQZKEWKTIE-UHFFFAOYSA-N

>  <Molecular Formula>
C11H22O3

>  <Target Organism>
Aedes aegypti

>  <Reference DOI>
10.3390/toxics11100837

>  <Activity Label>
1

>  <Repellency>
Active

>  <IUPAC>


>  <Common name>
2,6-Dimethyl-3(2-hydroxypropoxymethyl) tetrahydropyran

$$$$
Compound 204
     RDKit          2D

 14 14  0  0  0  0  0  0  0  0999 V2000
    0.0000    0.0000    0.0000 O   0  0  0  0  0  0  0  0  0  0  0  0
    1.2338   -0.7302    0.0000 C   0  0  0  0  0  0  0  0  0  0  0  0
    2.4676    0.0629    0.0000 O   0  0  0  0  0  0  0  0  0  0  0  0
    1.1583   -2.1781    0.0000 C   0  0  0  0  0  0  0  0  0  0  0  0
    2.3921    1.6619    0.0000 C   0  0  0  0  0  0  0  0  0  0  0  0
   -0.2266   -2.9083    0.0000 C   0  0  0  0  0  0  0  0  0  0  0  0
    2.3921   -2.9083    0.0000 C   0  0  0  0  0  0  0  0  0  0  0  0
    3.6260    2.4676    0.0000 C   0  0  0  0  0  0  0  0  0  0  0  0
   -1.6115   -2.1025    0.0000 N   0  0  0  0  0  0  0  0  0  0  0  0
   -0.3021   -4.3562    0.0000 C   0  0  0  0  0  0  0  0  0  0  0  0
    2.3166   -4.3562    0.0000 C   0  0  0  0  0  0  0  0  0  0  0  0
    3.5504    4.0666    0.0000 C   0  0  0  0  0  0  0  0  0  0  0  0
    0.9316   -5.0864    0.0000 C   0  0  0  0  0  0  0  0  0  0  0  0
    4.7843    4.8724    0.0000 C   0  0  0  0  0  0  0  0  0  0  0  0
  1  2  2  0
  2  3  1  0
  2  4  1  0
  3  5  1  0
  4  6  2  0
  4  7  1  0
  5  8  1  0
  6  9  1  0
  6 10  1  0
  7 11  2  0
  8 12  1  0
 10 13  2  0
 12 14  1  0
 11 13  1  0
M  END
>  <Structure No>
204

>  <Molecule Name>
Butyl anthranilate

>  <PubChem CID>
24433

>  <SMILES>
CCCCOC(c(cccc1)c1N)=O

>  <InChIKey>
HUIYGGQINIVDNW-UHFFFAOYSA-N

>  <Molecular Formula>
C11H15NO2

>  <Target Organism>
Aedes albopictus Skuse

>  <Reference DOI>
10.1016/j.actatropica.2019.105171

>  <Activity Label>
1

>  <Repellency>
Active

>  <IUPAC>
butyl 2-aminobenzoate

>  <Common name>
Butyl anthranilate

$$$$
Compound 205
     RDKit          2D

  0  0  0  0  0  0  0  0  0  0999 V3000
M  V30 BEGIN CTAB
M  V30 COUNTS 14 14 0 0 0
M  V30 BEGIN ATOM
M  V30 1 O 0.000000 0.000000 0.000000 0
M  V30 2 C -1.308900 0.761500 0.000000 0
M  V30 3 O -2.617800 0.035600 0.000000 0
M  V30 4 C -1.344600 2.272700 0.000000 0
M  V30 5 C -3.926700 0.797200 0.000000 0
M  V30 6 C -0.107000 3.046200 0.000000 0
M  V30 7 C -2.653500 3.034300 0.000000 0
M  V30 8 C -5.235600 0.071300 0.000000 0
M  V30 9 N 1.130400 3.807700 0.000000 0
M  V30 10 C -2.689200 4.545500 0.000000 0
M  V30 11 C -3.962400 2.308400 0.000000 0
M  V30 12 C -3.998100 5.307000 0.000000 0
M  V30 13 C -5.271300 3.081900 0.000000 0
M  V30 14 C -5.307000 4.581200 0.000000 0
M  V30 END ATOM
M  V30 BEGIN BOND
M  V30 1 2 1 2
M  V30 2 1 2 3
M  V30 3 1 2 4
M  V30 4 1 3 5
M  V30 5 1 4 6 CFG=3
M  V30 6 1 4 7
M  V30 7 1 5 8
M  V30 8 3 6 9
M  V30 9 1 7 10
M  V30 10 1 7 11
M  V30 11 1 10 12
M  V30 12 1 11 13
M  V30 13 1 12 14
M  V30 14 1 13 14
M  V30 END BOND
M  V30 BEGIN COLLECTION
M  V30 MDLV30/STERAC1 ATOMS=(1 4)
M  V30 END COLLECTION
M  V30 END CTAB
M  END
>  <Structure No>
205

>  <Molecule Name>
Ethyl 2-cyano-2-cyclohexylacetate

>  <PubChem CID>
239612

>  <SMILES>
CCOC(C(C1CCCCC1)C#N)=O

>  <InChIKey>
NUYCINUWJWAOFR-JTQLQIEISA-N

>  <Molecular Formula>
C11H17NO2

>  <Target Organism>
Aedes aegypti

>  <Reference DOI>
10.3390/toxics11100837

>  <Activity Label>
1

>  <Repellency>
Active

>  <IUPAC>
ethyl 2-cyano-2-cyclohexylacetate

>  <Common name>
Ethyl 2-cyano-2-cyclohexylacetate

$$$$
Compound 206
     RDKit          2D

 14 14  0  0  0  0  0  0  0  0999 V2000
    0.0000    0.0000    0.0000 O   0  0  0  0  0  0  0  0  0  0  0  0
   -0.0361    1.5293    0.0000 C   0  0  0  0  0  0  0  0  0  0  0  0
    1.2162    2.3001    0.0000 N   0  0  0  0  0  0  0  0  0  0  0  0
   -1.3608    2.3001    0.0000 C   0  0  0  0  0  0  0  0  0  0  0  0
    1.1801    3.8295    0.0000 C   0  0  0  0  0  0  0  0  0  0  0  0
    2.4687    1.5775    0.0000 C   0  0  0  0  0  0  0  0  0  0  0  0
   -2.6854    1.5775    0.0000 C   0  0  0  0  0  0  0  0  0  0  0  0
    2.4325    4.6002    0.0000 C   0  0  0  0  0  0  0  0  0  0  0  0
   -0.1445    4.6002    0.0000 C   0  0  0  0  0  0  0  0  0  0  0  0
    3.7211    2.3482    0.0000 C   0  0  0  0  0  0  0  0  0  0  0  0
    2.3964    6.1296    0.0000 C   0  0  0  0  0  0  0  0  0  0  0  0
   -0.1806    6.1296    0.0000 C   0  0  0  0  0  0  0  0  0  0  0  0
    4.9735    1.6257    0.0000 C   0  0  0  0  0  0  0  0  0  0  0  0
    1.0717    6.9003    0.0000 C   0  0  0  0  0  0  0  0  0  0  0  0
  1  2  2  0
  2  3  1  0
  2  4  1  0
  3  5  1  0
  3  6  1  0
  4  7  1  0
  5  8  2  0
  5  9  1  0
  6 10  1  0
  8 11  1  0
  9 12  2  0
 10 13  1  0
 11 14  2  0
 12 14  1  0
M  END
>  <Structure No>
206

>  <Molecule Name>
N-phenyl-N-propylpropanamide

>  <PubChem CID>
67266967

>  <SMILES>
CCCN(C(CC)=O)c1ccccc1

>  <InChIKey>
BHPRXECSODLNIC-UHFFFAOYSA-N

>  <Molecular Formula>
C12H17NO

>  <Target Organism>
Aedes aegypti

>  <Reference DOI>
10.3390/toxics11100837

>  <Activity Label>
1

>  <Repellency>
Active

>  <IUPAC>
N-phenyl-N-propylpropanamide

>  <Common name>
N-phenyl-N-propylpropanamide

$$$$
Compound 207
     RDKit          2D

 14 14  0  0  0  0  0  0  0  0999 V2000
    0.0000    0.0000    0.0000 O   0  0  0  0  0  0  0  0  0  0  0  0
   -0.0348   -1.4751    0.0000 C   0  0  0  0  0  0  0  0  0  0  0  0
   -1.3822   -2.1720    0.0000 N   0  0  0  0  0  0  0  0  0  0  0  0
    1.2428   -2.1720    0.0000 C   0  0  0  0  0  0  0  0  0  0  0  0
   -1.4170   -3.6472    0.0000 C   0  0  0  0  0  0  0  0  0  0  0  0
   -2.7296   -1.3706    0.0000 C   0  0  0  0  0  0  0  0  0  0  0  0
   -2.7644   -4.3441    0.0000 C   0  0  0  0  0  0  0  0  0  0  0  0
   -0.1393   -4.3557    0.0000 C   0  0  0  0  0  0  0  0  0  0  0  0
   -4.0770   -2.0675    0.0000 C   0  0  0  0  0  0  0  0  0  0  0  0
   -2.7993   -5.8193    0.0000 C   0  0  0  0  0  0  0  0  0  0  0  0
   -0.1742   -5.8309    0.0000 C   0  0  0  0  0  0  0  0  0  0  0  0
   -5.4244   -1.2660    0.0000 C   0  0  0  0  0  0  0  0  0  0  0  0
   -1.5216   -6.5278    0.0000 C   0  0  0  0  0  0  0  0  0  0  0  0
   -6.7718   -1.9630    0.0000 C   0  0  0  0  0  0  0  0  0  0  0  0
  1  2  2  0
  2  3  1  0
  2  4  1  0
  3  5  1  0
  3  6  1  0
  5  7  2  0
  5  8  1  0
  6  9  1  0
  7 10  1  0
  8 11  2  0
  9 12  1  0
 10 13  2  0
 12 14  1  0
 11 13  1  0
M  END
>  <Structure No>
207

>  <Molecule Name>
Butylacetanilide

>  <PubChem CID>
7051

>  <SMILES>
CCCCN(C(C)=O)c1ccccc1

>  <InChIKey>
ZWDZJRRQSXLOQR-UHFFFAOYSA-N

>  <Molecular Formula>
C12H17NO

>  <Target Organism>
Aedes aegypti

>  <Reference DOI>
10.3390/toxics11100837

>  <Activity Label>
1

>  <Repellency>
Active

>  <IUPAC>
N-butyl-N-phenylacetamide

>  <Common name>
Butylacetanilide

$$$$
Compound 208
     RDKit          2D

 14 14  0  0  0  0  0  0  0  0999 V2000
    0.0000    0.0000    0.0000 O   0  0  0  0  0  0  0  0  0  0  0  0
   -0.1172   -1.4197    0.0000 C   0  0  0  0  0  0  0  0  0  0  0  0
   -1.5499   -2.1361    0.0000 N   0  0  0  0  0  0  0  0  0  0  0  0
    1.0810   -2.1361    0.0000 C   0  0  0  0  0  0  0  0  0  0  0  0
   -1.6672   -3.5558    0.0000 C   0  0  0  0  0  0  0  0  0  0  0  0
   -2.9827   -1.2894    0.0000 C   0  0  0  0  0  0  0  0  0  0  0  0
    2.2793   -1.2894    0.0000 C   0  0  0  0  0  0  0  0  0  0  0  0
   -0.4689   -4.2592    0.0000 C   0  0  0  0  0  0  0  0  0  0  0  0
   -4.4155   -2.0058    0.0000 C   0  0  0  0  0  0  0  0  0  0  0  0
    3.4777   -1.9928    0.0000 C   0  0  0  0  0  0  0  0  0  0  0  0
    2.1621    0.3647    0.0000 C   0  0  0  0  0  0  0  0  0  0  0  0
    4.6760   -1.1462    0.0000 C   0  0  0  0  0  0  0  0  0  0  0  0
    3.3604    1.2113    0.0000 C   0  0  0  0  0  0  0  0  0  0  0  0
    4.5587    0.5079    0.0000 C   0  0  0  0  0  0  0  0  0  0  0  0
  1  2  2  0
  2  3  1  0
  2  4  1  0
  3  5  1  0
  3  6  1  0
  4  7  1  0
  5  8  1  0
  6  9  1  0
  7 10  2  0
  7 11  1  0
 10 12  1  0
 11 13  2  0
 12 14  2  0
 13 14  1  0
M  END
>  <Structure No>
208

>  <Molecule Name>
N,N-Diethyl-2-phenylacetamide

>  <PubChem CID>
17076

>  <SMILES>
CCN(CC)C(Cc1ccccc1)=O

>  <InChIKey>
UXDAWVUDZLBBAM-UHFFFAOYSA-N

>  <Molecular Formula>
C12H17NO

>  <Target Organism>
Periplaneta americana; Blattella germanica; Supella longipalpa

>  <Reference DOI>
10.1093/jmedent/27.6.962

>  <Activity Label>
1

>  <Repellency>
Active

>  <IUPAC>
N,N-diethyl-2-phenylacetamide

>  <Common name>
N,N-Diethyl-2-phenylacetamide

$$$$
Compound 209
     RDKit          2D

 14 14  0  0  0  0  0  0  0  0999 V2000
    0.0000    0.0000    0.0000 O   0  0  0  0  0  0  0  0  0  0  0  0
   -1.3284    0.7608    0.0000 C   0  0  0  0  0  0  0  0  0  0  0  0
   -2.6569    0.0241    0.0000 N   0  0  0  0  0  0  0  0  0  0  0  0
   -1.3647    2.2946    0.0000 C   0  0  0  0  0  0  0  0  0  0  0  0
   -2.6931   -1.4371    0.0000 C   0  0  0  0  0  0  0  0  0  0  0  0
   -3.9854    0.7970    0.0000 C   0  0  0  0  0  0  0  0  0  0  0  0
   -0.1086    3.0675    0.0000 C   0  0  0  0  0  0  0  0  0  0  0  0
   -4.0216   -2.1738    0.0000 C   0  0  0  0  0  0  0  0  0  0  0  0
   -1.4371   -2.1738    0.0000 C   0  0  0  0  0  0  0  0  0  0  0  0
   -4.0216    2.3308    0.0000 C   0  0  0  0  0  0  0  0  0  0  0  0
   -0.1449    4.6013    0.0000 C   0  0  0  0  0  0  0  0  0  0  0  0
   -4.0578   -3.6351    0.0000 C   0  0  0  0  0  0  0  0  0  0  0  0
   -1.4733   -3.6351    0.0000 C   0  0  0  0  0  0  0  0  0  0  0  0
   -2.8018   -4.3718    0.0000 C   0  0  0  0  0  0  0  0  0  0  0  0
  1  2  2  0
  2  3  1  0
  2  4  1  0
  3  5  1  0
  3  6  1  0
  4  7  2  0
  5  8  2  0
  5  9  1  0
  6 10  1  0
  7 11  1  0
  8 12  1  0
  9 13  2  0
 12 14  2  0
 13 14  1  0
M  END
>  <Structure No>
209

>  <Molecule Name>
(E)-N-ethyl-N-phenylbut-2-enamide

>  <PubChem CID>
5354305

>  <SMILES>
CCN(C(/C=C/C)=O)c1ccccc1

>  <InChIKey>
XTBRQTWUCGWBRA-FPYGCLRLSA-N

>  <Molecular Formula>
C12H15NO

>  <Target Organism>
Aedes aegypti

>  <Reference DOI>
10.1371/annotation/1dc83f26-8045-4b63-8a86-24c7b71a7f79

>  <Activity Label>
1

>  <Repellency>
Active

>  <IUPAC>


>  <Common name>
(E)-N-ethyl-N-phenylbut-2-enamide

$$$$
Compound 210
     RDKit          2D

 14 14  0  0  0  0  0  0  0  0999 V2000
    0.0000    0.0000    0.0000 O   0  0  0  0  0  0  0  0  0  0  0  0
   -1.3686    0.7838    0.0000 C   0  0  0  0  0  0  0  0  0  0  0  0
   -2.7372    0.1119    0.0000 N   0  0  0  0  0  0  0  0  0  0  0  0
   -1.4805    2.3639    0.0000 C   0  0  0  0  0  0  0  0  0  0  0  0
   -2.8491   -1.2441    0.0000 C   0  0  0  0  0  0  0  0  0  0  0  0
   -4.1058    0.9082    0.0000 C   0  0  0  0  0  0  0  0  0  0  0  0
   -0.3359    3.1602    0.0000 C   0  0  0  0  0  0  0  0  0  0  0  0
   -2.8491    3.1602    0.0000 C   0  0  0  0  0  0  0  0  0  0  0  0
   -1.7045   -1.9160    0.0000 C   0  0  0  0  0  0  0  0  0  0  0  0
   -5.4744    0.2363    0.0000 C   0  0  0  0  0  0  0  0  0  0  0  0
   -0.4479    4.7403    0.0000 C   0  0  0  0  0  0  0  0  0  0  0  0
   -2.9611    4.7403    0.0000 C   0  0  0  0  0  0  0  0  0  0  0  0
   -1.8165    5.5366    0.0000 C   0  0  0  0  0  0  0  0  0  0  0  0
    0.6967    5.5366    0.0000 C   0  0  0  0  0  0  0  0  0  0  0  0
  1  2  2  0
  2  3  1  0
  2  4  1  0
  3  5  1  0
  3  6  1  0
  4  7  2  0
  4  8  1  0
  5  9  1  0
  6 10  1  0
  7 11  1  0
  8 12  2  0
 11 13  2  0
 11 14  1  0
 12 13  1  0
M  END
>  <Structure No>
210

>  <Molecule Name>
N,N-diethyl-m-toluamide; DEET

>  <PubChem CID>
4284

>  <SMILES>
CCN(CC)C(c1cc(C)ccc1)=O; CCN(CC)C(=O)C1=CC=CC(=C1)C

>  <InChIKey>
MMOXZBCLCQITDF-UHFFFAOYSA-N

>  <Molecular Formula>
C12H17NO

>  <Target Organism>
Anopheles stephensi: Aedes aegypti; Aedes aegypti; Aedes albopictus

>  <Reference DOI>
10.1016/j.cub.2019.09.007; 10.1002/ps.1268; 10.1002/ps.3518; 10.1002/ps.5769; 10.1016/j.jep.2018.11.031; 10.1021/acs.jafc.6b01668

>  <Activity Label>
1

>  <Repellency>
Active

>  <IUPAC>
N,N-diethyl-3-methylbenzamide

>  <Common name>
N,N-diethyl-m-toluamide; DEET

$$$$
Compound 211
     RDKit          2D

 14 14  0  0  0  0  0  0  0  0999 V2000
    0.0000    0.0000    0.0000 O   0  0  0  0  0  0  0  0  0  0  0  0
   -0.0362   -1.4636    0.0000 C   0  0  0  0  0  0  0  0  0  0  0  0
   -1.3668   -2.2015    0.0000 O   0  0  0  0  0  0  0  0  0  0  0  0
    1.2217   -2.2015    0.0000 C   0  0  0  0  0  0  0  0  0  0  0  0
   -2.6974   -1.4273    0.0000 C   0  0  0  0  0  0  0  0  0  0  0  0
    2.4797   -1.4273    0.0000 N   0  0  0  0  0  0  0  0  0  0  0  0
   -4.0280   -2.1652    0.0000 C   0  0  0  0  0  0  0  0  0  0  0  0
    3.7377   -2.1652    0.0000 C   0  0  0  0  0  0  0  0  0  0  0  0
    2.4434    0.1088    0.0000 C   0  0  0  0  0  0  0  0  0  0  0  0
   -5.3586   -1.3910    0.0000 C   0  0  0  0  0  0  0  0  0  0  0  0
    4.9957   -1.3910    0.0000 C   0  0  0  0  0  0  0  0  0  0  0  0
    3.7014    0.8951    0.0000 C   0  0  0  0  0  0  0  0  0  0  0  0
   -6.6892   -2.1289    0.0000 C   0  0  0  0  0  0  0  0  0  0  0  0
    4.9594    0.1451    0.0000 O   0  0  0  0  0  0  0  0  0  0  0  0
  1  2  2  0
  2  3  1  0
  2  4  1  0
  3  5  1  0
  4  6  1  0
  5  7  1  0
  6  8  1  0
  6  9  1  0
  7 10  1  0
  8 11  1  0
  9 12  1  0
 10 13  1  0
 11 14  1  0
 12 14  1  0
M  END
>  <Structure No>
211

>  <Molecule Name>
Butyl 2-morpholin-4-ylacetate

>  <PubChem CID>
59204117

>  <SMILES>
CCCCOC(CN1CCOCC1)=O

>  <InChIKey>
RXLQKAXLSHPIFI-UHFFFAOYSA-N

>  <Molecular Formula>
C10H19NO3

>  <Target Organism>
Aedes aegypti

>  <Reference DOI>
10.3390/toxics11100837

>  <Activity Label>
1

>  <Repellency>
Active

>  <IUPAC>
butyl 2-morpholin-4-ylacetate

>  <Common name>
Butyl 2-morpholin-4-ylacetate

$$$$
Compound 212
     RDKit          2D

 14 13  0  0  0  0  0  0  0  0999 V2000
    0.0000    0.0000    0.0000 O   0  0  0  0  0  0  0  0  0  0  0  0
    0.0000    1.4998    0.0000 C   0  0  0  0  0  0  0  0  0  0  0  0
    1.2990    2.2438    0.0000 O   0  0  0  0  0  0  0  0  0  0  0  0
   -1.2990    2.2438    0.0000 C   0  0  0  0  0  0  0  0  0  0  0  0
    2.5981    1.4880    0.0000 C   0  0  0  0  0  0  0  0  0  0  0  0
   -2.5981    1.4880    0.0000 C   0  0  0  0  0  0  0  0  0  0  0  0
   -3.8972    2.2320    0.0000 C   0  0  0  0  0  0  0  0  0  0  0  0
   -5.1963    1.4762    0.0000 C   0  0  0  0  0  0  0  0  0  0  0  0
   -6.4954    2.2202    0.0000 C   0  0  0  0  0  0  0  0  0  0  0  0
   -7.7945    1.4644    0.0000 C   0  0  0  0  0  0  0  0  0  0  0  0
   -9.0935    2.2084    0.0000 C   0  0  0  0  0  0  0  0  0  0  0  0
  -10.3926    1.4526    0.0000 C   0  0  0  0  0  0  0  0  0  0  0  0
  -11.6917    2.1966    0.0000 C   0  0  0  0  0  0  0  0  0  0  0  0
  -12.9908    1.4408    0.0000 C   0  0  0  0  0  0  0  0  0  0  0  0
  1  2  2  0
  2  3  1  0
  2  4  1  0
  3  5  1  0
  4  6  1  0
  6  7  1  0
  7  8  1  0
  8  9  1  0
  9 10  1  0
 10 11  1  0
 11 12  1  0
 12 13  1  0
 13 14  1  0
M  END
>  <Structure No>
212

>  <Molecule Name>
Methyl undecanoate

>  <PubChem CID>
15607

>  <SMILES>
CCCCCCCCCCC(OC)=O

>  <InChIKey>
XPQPWPZFBULGKT-UHFFFAOYSA-N

>  <Molecular Formula>
C12H24O2

>  <Target Organism>
Aedes aegypti

>  <Reference DOI>
10.1002/ps.5994

>  <Activity Label>
1

>  <Repellency>
Active

>  <IUPAC>


>  <Common name>
Methyl undecanoate

$$$$
Compound 213
     RDKit          2D

 14 13  0  0  0  0  0  0  0  0999 V2000
    0.0000    0.0000    0.0000 O   0  0  0  0  0  0  0  0  0  0  0  0
   -0.0905    1.6426    0.0000 C   0  0  0  0  0  0  0  0  0  0  0  0
    1.1511    2.4833    0.0000 O   0  0  0  0  0  0  0  0  0  0  0  0
   -1.5132    2.4833    0.0000 C   0  0  0  0  0  0  0  0  0  0  0  0
    2.3927    1.7460    0.0000 C   0  0  0  0  0  0  0  0  0  0  0  0
    3.6344    2.5867    0.0000 C   0  0  0  0  0  0  0  0  0  0  0  0
    4.8761    1.8495    0.0000 C   0  0  0  0  0  0  0  0  0  0  0  0
    6.1177    2.6902    0.0000 C   0  0  0  0  0  0  0  0  0  0  0  0
    4.7855    0.3880    0.0000 C   0  0  0  0  0  0  0  0  0  0  0  0
    7.3594    1.9530    0.0000 C   0  0  0  0  0  0  0  0  0  0  0  0
    8.6010    2.7937    0.0000 C   0  0  0  0  0  0  0  0  0  0  0  0
    9.8427    2.0564    0.0000 C   0  0  0  0  0  0  0  0  0  0  0  0
   11.0844    2.8972    0.0000 C   0  0  0  0  0  0  0  0  0  0  0  0
    9.7522    0.5949    0.0000 C   0  0  0  0  0  0  0  0  0  0  0  0
  1  2  2  0
  2  3  1  0
  2  4  1  0
  3  5  1  0
  5  6  1  0
  6  7  2  0
  7  8  1  0
  7  9  1  0
  8 10  1  0
 10 11  1  0
 11 12  2  0
 12 13  1  0
 12 14  1  0
M  END
>  <Structure No>
213

>  <Molecule Name>
Geranyl Acetate

>  <PubChem CID>
1549026

>  <SMILES>
CC(C)=CCC/C(\C)=C/COC(C)=O

>  <InChIKey>
HIGQPQRQIQDZMP-DHZHZOJOSA-N

>  <Molecular Formula>
C12H20O2

>  <Target Organism>
Aedes aegypti

>  <Reference DOI>
10.1038/s41598-022-24923-x

>  <Activity Label>
1

>  <Repellency>
Active

>  <IUPAC>


>  <Common name>
GERANYL ACETATE

$$$$
Compound 214
     RDKit          2D

 14 13  0  0  0  0  0  0  0  0999 V2000
    0.0000    0.0000    0.0000 O   0  0  0  0  0  0  0  0  0  0  0  0
   -1.2990    0.7440    0.0000 C   0  0  0  0  0  0  0  0  0  0  0  0
   -1.2990    2.2438    0.0000 O   0  0  0  0  0  0  0  0  0  0  0  0
   -2.5981   -0.0118    0.0000 C   0  0  0  0  0  0  0  0  0  0  0  0
   -3.8972    0.7322    0.0000 C   0  0  0  0  0  0  0  0  0  0  0  0
   -5.1963   -0.0236    0.0000 C   0  0  0  0  0  0  0  0  0  0  0  0
   -6.4954    0.7204    0.0000 C   0  0  0  0  0  0  0  0  0  0  0  0
   -7.7945   -0.0354    0.0000 C   0  0  0  0  0  0  0  0  0  0  0  0
   -9.0935    0.7085    0.0000 C   0  0  0  0  0  0  0  0  0  0  0  0
  -10.3926   -0.0472    0.0000 C   0  0  0  0  0  0  0  0  0  0  0  0
  -11.6917    0.6967    0.0000 C   0  0  0  0  0  0  0  0  0  0  0  0
  -12.9908   -0.0590    0.0000 C   0  0  0  0  0  0  0  0  0  0  0  0
  -14.2899    0.6849    0.0000 C   0  0  0  0  0  0  0  0  0  0  0  0
  -15.5890   -0.0708    0.0000 C   0  0  0  0  0  0  0  0  0  0  0  0
  1  2  2  0
  2  3  1  0
  2  4  1  0
  4  5  1  0
  5  6  1  0
  6  7  1  0
  7  8  1  0
  8  9  1  0
  9 10  1  0
 10 11  1  0
 11 12  1  0
 12 13  1  0
 13 14  1  0
M  END
>  <Structure No>
214

>  <Molecule Name>
Lauric Acid

>  <PubChem CID>
3893

>  <SMILES>
CCCCCCCCCCCC(O)=O

>  <InChIKey>
POULHZVOKOAJMA-UHFFFAOYSA-N

>  <Molecular Formula>
C12H24O2

>  <Target Organism>
Aedes aegypti

>  <Reference DOI>
10.1002/ps.5994

>  <Activity Label>
1

>  <Repellency>
Active

>  <IUPAC>


>  <Common name>
Lauric Acid

$$$$
Compound 215
     RDKit          2D

  0  0  0  0  0  0  0  0  0  0999 V3000
M  V30 BEGIN CTAB
M  V30 COUNTS 14 13 0 0 0
M  V30 BEGIN ATOM
M  V30 1 O 0.000000 0.000000 0.000000 0
M  V30 2 C -1.307600 0.760800 0.000000 0
M  V30 3 O -1.343300 2.270500 0.000000 0
M  V30 4 C -2.615300 0.035600 0.000000 0
M  V30 5 C -3.922900 0.796400 0.000000 0
M  V30 6 C -5.230600 0.071300 0.000000 0
M  V30 7 C -5.266300 -1.367100 0.000000 0
M  V30 8 C -6.538300 0.832100 0.000000 0
M  V30 9 C -5.266300 1.581000 0.000000 0
M  V30 10 O -6.573900 -2.092200 0.000000 0
M  V30 11 C -7.845900 0.106900 0.000000 0
M  V30 12 C -6.573900 2.341900 0.000000 0
M  V30 13 C -9.153600 0.867800 0.000000 0
M  V30 14 C -10.461200 0.142600 0.000000 0
M  V30 END ATOM
M  V30 BEGIN BOND
M  V30 1 2 1 2
M  V30 2 1 2 3
M  V30 3 1 2 4
M  V30 4 1 4 5
M  V30 5 1 6 5 CFG=1
M  V30 6 1 6 7
M  V30 7 1 6 8
M  V30 8 1 6 9
M  V30 9 2 7 10
M  V30 10 1 8 11
M  V30 11 1 9 12
M  V30 12 1 11 13
M  V30 13 1 13 14
M  V30 END BOND
M  V30 BEGIN COLLECTION
M  V30 MDLV30/STERAC1 ATOMS=(1 6)
M  V30 END COLLECTION
M  V30 END CTAB
M  END
>  <Structure No>
215

>  <Molecule Name>
2-(beta-Carboxyethyl)-2-ethyl-hexanal

>  <PubChem CID>
121216957

>  <SMILES>
CCCCC(CC)(CCC(O)=O)C=O

>  <InChIKey>
WRURAEQBOYRAPP-NSHDSACASA-N

>  <Molecular Formula>
C11H20O3

>  <Target Organism>
Aedes aegypti

>  <Reference DOI>
10.3390/toxics11100837

>  <Activity Label>
1

>  <Repellency>
Active

>  <IUPAC>
4-ethyl-4-formyloctanoic acid

>  <Common name>
2-(beta-Carboxyethyl)-2-ethyl-hexanal

$$$$
Compound 216
     RDKit          2D

 14 13  0  0  0  0  0  0  0  0999 V2000
    0.0000    0.0000    0.0000 O   0  0  0  0  0  0  0  0  0  0  0  0
    1.2662    0.7942    0.0000 C   0  0  0  0  0  0  0  0  0  0  0  0
   -1.3352    0.7942    0.0000 C   0  0  0  0  0  0  0  0  0  0  0  0
    2.5324    0.0805    0.0000 C   0  0  0  0  0  0  0  0  0  0  0  0
   -2.6705    0.0805    0.0000 C   0  0  0  0  0  0  0  0  0  0  0  0
    2.4979   -1.3813    0.0000 O   0  0  0  0  0  0  0  0  0  0  0  0
    3.7986    0.8748    0.0000 C   0  0  0  0  0  0  0  0  0  0  0  0
   -4.0058    0.8748    0.0000 C   0  0  0  0  0  0  0  0  0  0  0  0
   -2.7051   -1.3813    0.0000 C   0  0  0  0  0  0  0  0  0  0  0  0
    5.0648    0.1381    0.0000 O   0  0  0  0  0  0  0  0  0  0  0  0
   -5.3411    0.1381    0.0000 C   0  0  0  0  0  0  0  0  0  0  0  0
   -1.4388   -2.0720    0.0000 C   0  0  0  0  0  0  0  0  0  0  0  0
   -6.6764    0.9324    0.0000 C   0  0  0  0  0  0  0  0  0  0  0  0
   -8.0117    0.1956    0.0000 C   0  0  0  0  0  0  0  0  0  0  0  0
  1  2  1  0
  1  3  1  0
  2  4  1  0
  3  5  1  0
  4  6  1  0
  4  7  1  0
  5  8  1  0
  5  9  1  0
  7 10  1  0
  8 11  1  0
  9 12  1  0
 11 13  1  0
 13 14  1  0
M  END
>  <Structure No>
216

>  <Molecule Name>
3-((2-Ethylhexyl)oxy)-1,2-propanediol

>  <PubChem CID>
9859093

>  <SMILES>
CCCCC(CC)COCC(CO)O

>  <InChIKey>
NCZPCONIKBICGS-UHFFFAOYSA-N

>  <Molecular Formula>
C11H24O3

>  <Target Organism>
Aedes aegypti

>  <Reference DOI>
10.3390/toxics11100837

>  <Activity Label>
1

>  <Repellency>
Active

>  <IUPAC>
3-(2-ethylhexoxy)propane-1,2-diol

>  <Common name>
3-((2-Ethylhexyl)oxy)-1,2-propanediol

$$$$
Compound 217
     RDKit          2D

 14 13  0  0  0  0  0  0  0  0999 V2000
    0.0000    0.0000    0.0000 O   0  0  0  0  0  0  0  0  0  0  0  0
   -0.0360    1.5270    0.0000 C   0  0  0  0  0  0  0  0  0  0  0  0
    1.2144    2.2966    0.0000 N   0  0  0  0  0  0  0  0  0  0  0  0
   -1.3587    2.2966    0.0000 C   0  0  0  0  0  0  0  0  0  0  0  0
    2.4649    1.5631    0.0000 C   0  0  0  0  0  0  0  0  0  0  0  0
    1.1783    3.8237    0.0000 C   0  0  0  0  0  0  0  0  0  0  0  0
   -2.6814    1.5631    0.0000 C   0  0  0  0  0  0  0  0  0  0  0  0
    3.7155    2.3327    0.0000 C   0  0  0  0  0  0  0  0  0  0  0  0
    2.4289    4.5932    0.0000 C   0  0  0  0  0  0  0  0  0  0  0  0
   -4.0040    2.3327    0.0000 C   0  0  0  0  0  0  0  0  0  0  0  0
    4.9660    1.5992    0.0000 C   0  0  0  0  0  0  0  0  0  0  0  0
    2.3928    6.1203    0.0000 C   0  0  0  0  0  0  0  0  0  0  0  0
   -4.0401    3.8598    0.0000 O   0  0  0  0  0  0  0  0  0  0  0  0
   -5.3267    1.5992    0.0000 C   0  0  0  0  0  0  0  0  0  0  0  0
  1  2  2  0
  2  3  1  0
  2  4  1  0
  3  5  1  0
  3  6  1  0
  4  7  1  0
  5  8  1  0
  6  9  1  0
  7 10  1  0
  8 11  1  0
  9 12  1  0
 10 13  2  0
 10 14  1  0
M  END
>  <Structure No>
217

>  <Molecule Name>
N,N-Dipropyllevulinamide

>  <PubChem CID>
245459

>  <SMILES>
CCCN(CCC)C(CCC(C)=O)=O

>  <InChIKey>
VPIFAEQOPCLADY-UHFFFAOYSA-N

>  <Molecular Formula>
C11H21NO2

>  <Target Organism>
Aedes aegypti

>  <Reference DOI>
10.3390/toxics11100837

>  <Activity Label>
1

>  <Repellency>
Active

>  <IUPAC>
4-oxo-N,N-dipropylpentanamide

>  <Common name>
N,N-Dipropyllevulinamide

$$$$
Compound 218
     RDKit          2D

 14 13  0  0  0  0  0  0  0  0999 V2000
    0.0000    0.0000    0.0000 O   0  0  0  0  0  0  0  0  0  0  0  0
   -0.0360    1.5273    0.0000 C   0  0  0  0  0  0  0  0  0  0  0  0
    1.2146    2.2850    0.0000 N   0  0  0  0  0  0  0  0  0  0  0  0
   -1.3590    2.2850    0.0000 C   0  0  0  0  0  0  0  0  0  0  0  0
    2.4654    1.5514    0.0000 C   0  0  0  0  0  0  0  0  0  0  0  0
    1.1786    3.8124    0.0000 C   0  0  0  0  0  0  0  0  0  0  0  0
   -2.6819    1.5514    0.0000 C   0  0  0  0  0  0  0  0  0  0  0  0
    3.7162    2.3211    0.0000 C   0  0  0  0  0  0  0  0  0  0  0  0
    2.4293    0.0962    0.0000 C   0  0  0  0  0  0  0  0  0  0  0  0
    2.4293    4.5821    0.0000 C   0  0  0  0  0  0  0  0  0  0  0  0
   -0.1443    4.5821    0.0000 C   0  0  0  0  0  0  0  0  0  0  0  0
   -4.0048    2.3211    0.0000 C   0  0  0  0  0  0  0  0  0  0  0  0
   -4.0409    3.8485    0.0000 O   0  0  0  0  0  0  0  0  0  0  0  0
   -5.3278    1.5875    0.0000 C   0  0  0  0  0  0  0  0  0  0  0  0
  1  2  2  0
  2  3  1  0
  2  4  1  0
  3  5  1  0
  3  6  1  0
  4  7  1  0
  5  8  1  0
  5  9  1  0
  6 10  1  0
  6 11  1  0
  7 12  1  0
 12 13  2  0
 12 14  1  0
M  END
>  <Structure No>
218

>  <Molecule Name>
4-oxo-N,N-di(propan-2-yl)pentanamide

>  <PubChem CID>
245460

>  <SMILES>
CC(C)N(C(C)C)C(CCC(C)=O)=O

>  <InChIKey>
BEFKMDJGUWGWFH-UHFFFAOYSA-N

>  <Molecular Formula>
C11H21NO2

>  <Target Organism>
Aedes aegypti

>  <Reference DOI>
10.3390/toxics11100837

>  <Activity Label>
1

>  <Repellency>
Active

>  <IUPAC>
4-oxo-N,N-di(propan-2-yl)pentanamide

>  <Common name>
4-oxo-N,N-di(propan-2-yl)pentanamide

$$$$
Compound 219
     RDKit          2D

 14 13  0  0  0  0  0  0  0  0999 V2000
    0.0000    0.0000    0.0000 O   0  0  0  0  0  0  0  0  0  0  0  0
   -1.3198    0.7679    0.0000 C   0  0  0  0  0  0  0  0  0  0  0  0
   -1.3558    2.2918    0.0000 N   0  0  0  0  0  0  0  0  0  0  0  0
   -2.6397    0.0479    0.0000 C   0  0  0  0  0  0  0  0  0  0  0  0
   -0.1079    3.0597    0.0000 C   0  0  0  0  0  0  0  0  0  0  0  0
   -2.6757    3.0597    0.0000 C   0  0  0  0  0  0  0  0  0  0  0  0
    1.1399    2.3278    0.0000 C   0  0  0  0  0  0  0  0  0  0  0  0
   -3.9956    2.3278    0.0000 C   0  0  0  0  0  0  0  0  0  0  0  0
    2.3878    3.0957    0.0000 C   0  0  0  0  0  0  0  0  0  0  0  0
   -5.3155    3.0957    0.0000 C   0  0  0  0  0  0  0  0  0  0  0  0
    3.6357    2.3638    0.0000 C   0  0  0  0  0  0  0  0  0  0  0  0
    2.3518    4.6196    0.0000 C   0  0  0  0  0  0  0  0  0  0  0  0
   -5.3515    4.6196    0.0000 C   0  0  0  0  0  0  0  0  0  0  0  0
   -6.6354    2.3638    0.0000 C   0  0  0  0  0  0  0  0  0  0  0  0
  1  2  2  0
  2  3  1  0
  2  4  1  0
  3  5  1  0
  3  6  1  0
  5  7  1  0
  6  8  1  0
  7  9  1  0
  8 10  1  0
  9 11  1  0
  9 12  1  0
 10 13  1  0
 10 14  1  0
M  END
>  <Structure No>
219

>  <Molecule Name>
N,N-bis(3-methylbutyl)acetamide

>  <PubChem CID>
347868

>  <SMILES>
CC(C)CCN(CCC(C)C)C(C)=O

>  <InChIKey>
MIAAGDHDTGYTTF-UHFFFAOYSA-N

>  <Molecular Formula>
C12H25NO

>  <Target Organism>
Aedes aegypti

>  <Reference DOI>
10.3390/toxics11100837

>  <Activity Label>
1

>  <Repellency>
Active

>  <IUPAC>
N,N-bis(3-methylbutyl)acetamide

>  <Common name>
N,N-bis(3-methylbutyl)acetamide

$$$$
Compound 220
     RDKit          2D

 14 13  0  0  0  0  0  0  0  0999 V2000
    0.0000    0.0000    0.0000 O   0  0  0  0  0  0  0  0  0  0  0  0
   -1.3341    0.7762    0.0000 C   0  0  0  0  0  0  0  0  0  0  0  0
   -2.6683    0.0485    0.0000 O   0  0  0  0  0  0  0  0  0  0  0  0
   -1.3705    2.3166    0.0000 C   0  0  0  0  0  0  0  0  0  0  0  0
   -2.7047   -1.4190    0.0000 C   0  0  0  0  0  0  0  0  0  0  0  0
   -0.1091    3.0807    0.0000 C   0  0  0  0  0  0  0  0  0  0  0  0
   -4.0389   -2.1589    0.0000 C   0  0  0  0  0  0  0  0  0  0  0  0
    1.1522    2.3530    0.0000 C   0  0  0  0  0  0  0  0  0  0  0  0
    1.1158    0.8854    0.0000 O   0  0  0  0  0  0  0  0  0  0  0  0
    2.4136    3.1292    0.0000 N   0  0  0  0  0  0  0  0  0  0  0  0
    3.6751    2.4015    0.0000 C   0  0  0  0  0  0  0  0  0  0  0  0
    2.3772    4.6696    0.0000 C   0  0  0  0  0  0  0  0  0  0  0  0
    4.9365    3.1778    0.0000 C   0  0  0  0  0  0  0  0  0  0  0  0
    1.0430    5.4459    0.0000 C   0  0  0  0  0  0  0  0  0  0  0  0
  1  2  2  0
  2  3  1  0
  2  4  1  0
  3  5  1  0
  4  6  2  0
  5  7  1  0
  6  8  1  0
  8  9  2  0
  8 10  1  0
 10 11  1  0
 10 12  1  0
 11 13  1  0
 12 14  1  0
M  END
>  <Structure No>
220

>  <Molecule Name>
N,N-Diethylmaleamic acid, ethyl ester

>  <PubChem CID>
152705446

>  <SMILES>
CCN(CC)C(/C=C\C(OCC)=O)=O

>  <InChIKey>
ZSLXUJMRRXVLBF-FPLPWBNLSA-N

>  <Molecular Formula>
C10H17NO3

>  <Target Organism>
Aedes aegypti

>  <Reference DOI>
10.3390/toxics11100837

>  <Activity Label>
1

>  <Repellency>
Active

>  <IUPAC>


>  <Common name>
N,N-Diethylmaleamic acid, ethyl ester

$$$$
Compound 221
     RDKit          2D

 14 13  0  0  0  0  0  0  0  0999 V2000
    0.0000    0.0000    0.0000 O   0  0  0  0  0  0  0  0  0  0  0  0
   -0.0365   -1.4725    0.0000 C   0  0  0  0  0  0  0  0  0  0  0  0
   -1.3751   -2.2027    0.0000 O   0  0  0  0  0  0  0  0  0  0  0  0
    1.2291   -2.2027    0.0000 C   0  0  0  0  0  0  0  0  0  0  0  0
   -2.7138   -1.4117    0.0000 C   0  0  0  0  0  0  0  0  0  0  0  0
    2.4948   -1.4117    0.0000 C   0  0  0  0  0  0  0  0  0  0  0  0
   -4.0525   -2.1418    0.0000 C   0  0  0  0  0  0  0  0  0  0  0  0
    3.7604   -2.1418    0.0000 C   0  0  0  0  0  0  0  0  0  0  0  0
    3.7239   -3.6144    0.0000 O   0  0  0  0  0  0  0  0  0  0  0  0
    5.0261   -1.3630    0.0000 N   0  0  0  0  0  0  0  0  0  0  0  0
    6.2918   -2.0932    0.0000 C   0  0  0  0  0  0  0  0  0  0  0  0
    4.9896    0.1825    0.0000 C   0  0  0  0  0  0  0  0  0  0  0  0
    7.5574   -1.3143    0.0000 C   0  0  0  0  0  0  0  0  0  0  0  0
    3.6509    0.9735    0.0000 C   0  0  0  0  0  0  0  0  0  0  0  0
  1  2  2  0
  2  3  1  0
  2  4  1  0
  3  5  1  0
  4  6  1  0
  5  7  1  0
  6  8  1  0
  8  9  2  0
  8 10  1  0
 10 11  1  0
 10 12  1  0
 11 13  1  0
 12 14  1  0
M  END
>  <Structure No>
221

>  <Molecule Name>
Ethyl 4-(diethylamino)-4-oxobutanoate

>  <PubChem CID>
347845

>  <SMILES>
CCN(CC)C(CCC(OCC)=O)=O

>  <InChIKey>
ILXMMLXNGGTPIM-UHFFFAOYSA-N

>  <Molecular Formula>
C10H19NO3

>  <Target Organism>
Aedes aegypti

>  <Reference DOI>
10.3390/toxics11100837

>  <Activity Label>
1

>  <Repellency>
Active

>  <IUPAC>
ethyl 4-(diethylamino)-4-oxobutanoate

>  <Common name>
Ethyl 4-(diethylamino)-4-oxobutanoate

$$$$
Compound 222
     RDKit          2D

 14 13  0  0  0  0  0  0  0  0999 V2000
    0.0000    0.0000    0.0000 O   0  0  0  0  0  0  0  0  0  0  0  0
   -0.0364    1.5443    0.0000 C   0  0  0  0  0  0  0  0  0  0  0  0
   -1.3741    2.3225    0.0000 O   0  0  0  0  0  0  0  0  0  0  0  0
    1.2281    2.3225    0.0000 C   0  0  0  0  0  0  0  0  0  0  0  0
   -2.7117    1.5929    0.0000 C   0  0  0  0  0  0  0  0  0  0  0  0
    2.4928    1.5929    0.0000 C   0  0  0  0  0  0  0  0  0  0  0  0
    3.7574    2.3712    0.0000 C   0  0  0  0  0  0  0  0  0  0  0  0
    5.0221    1.6416    0.0000 C   0  0  0  0  0  0  0  0  0  0  0  0
    4.9856    0.1702    0.0000 O   0  0  0  0  0  0  0  0  0  0  0  0
    6.2868    2.4198    0.0000 N   0  0  0  0  0  0  0  0  0  0  0  0
    7.5514    1.6902    0.0000 C   0  0  0  0  0  0  0  0  0  0  0  0
    6.2503    3.9642    0.0000 C   0  0  0  0  0  0  0  0  0  0  0  0
    8.8161    2.4685    0.0000 C   0  0  0  0  0  0  0  0  0  0  0  0
    4.9127    4.7424    0.0000 C   0  0  0  0  0  0  0  0  0  0  0  0
  1  2  2  0
  2  3  1  0
  2  4  1  0
  3  5  1  0
  4  6  1  0
  6  7  1  0
  7  8  1  0
  8  9  2  0
  8 10  1  0
 10 11  1  0
 10 12  1  0
 11 13  1  0
 12 14  1  0
M  END
>  <Structure No>
222

>  <Molecule Name>
Methyl 5-(diethylamino)-5-oxopentanoate

>  <PubChem CID>
12618393

>  <SMILES>
CCN(CC)C(CCCC(OC)=O)=O

>  <InChIKey>
PRFNMZJBASGWBD-UHFFFAOYSA-N

>  <Molecular Formula>
C10H19NO3

>  <Target Organism>
Aedes aegypti

>  <Reference DOI>
10.3390/toxics11100837

>  <Activity Label>
1

>  <Repellency>
Active

>  <IUPAC>
methyl 5-(diethylamino)-5-oxopentanoate

>  <Common name>
Methyl 5-(diethylamino)-5-oxopentanoate

$$$$
Compound 223
     RDKit          2D

 14 15  0  0  0  0  0  0  0  0999 V2000
    0.0000    0.0000    0.0000 O   0  0  0  0  0  0  0  0  0  0  0  0
    0.7050   -1.2926    0.0000 C   0  0  0  0  0  0  0  0  0  0  0  0
   -0.6580   -1.9977    0.0000 C   0  0  0  0  0  0  0  0  0  0  0  0
    1.9977   -1.9977    0.0000 C   0  0  0  0  0  0  0  0  0  0  0  0
    1.4101    0.0705    0.0000 C   0  0  0  0  0  0  0  0  0  0  0  0
   -0.6933   -3.4901    0.0000 C   0  0  0  0  0  0  0  0  0  0  0  0
    1.9624   -3.4901    0.0000 C   0  0  0  0  0  0  0  0  0  0  0  0
    2.9025    0.1057    0.0000 C   0  0  0  0  0  0  0  0  0  0  0  0
    0.5993   -4.1952    0.0000 C   0  0  0  0  0  0  0  0  0  0  0  0
    3.6076    1.4689    0.0000 C   0  0  0  0  0  0  0  0  0  0  0  0
    3.6076   -1.1868    0.0000 C   0  0  0  0  0  0  0  0  0  0  0  0
    5.1000    1.5041    0.0000 C   0  0  0  0  0  0  0  0  0  0  0  0
    5.1000   -1.1516    0.0000 C   0  0  0  0  0  0  0  0  0  0  0  0
    5.8051    0.2115    0.0000 C   0  0  0  0  0  0  0  0  0  0  0  0
  1  2  1  0
  2  3  1  0
  2  4  1  0
  2  5  1  0
  3  6  1  0
  4  7  1  0
  5  8  1  0
  6  9  1  0
  8 10  2  0
  8 11  1  0
 10 12  1  0
 11 13  2  0
 12 14  2  0
  7  9  1  0
 13 14  1  0
M  END
>  <Structure No>
223

>  <Molecule Name>
1-Benzylcyclohexan-1-ol

>  <PubChem CID>
74753

>  <SMILES>
OC1(Cc2ccccc2)CCCCC1

>  <InChIKey>
FELACZRZMOTSPB-UHFFFAOYSA-N

>  <Molecular Formula>
C13H18O

>  <Target Organism>
Aedes aegypti

>  <Reference DOI>
10.1371/annotation/1dc83f26-8045-4b63-8a86-24c7b71a7f79

>  <Activity Label>
1

>  <Repellency>
Active

>  <IUPAC>
1-benzylcyclohexan-1-ol

>  <Common name>
1-Benzylcyclohexan-1-ol

$$$$
Compound 224
     RDKit          2D

 14 15  0  0  0  0  0  0  0  0999 V2000
    0.0000    0.0000    0.0000 F   0  0  0  0  0  0  0  0  0  0  0  0
   -0.0350   -1.4851    0.0000 C   0  0  0  0  0  0  0  0  0  0  0  0
    1.2512   -2.1984    0.0000 C   0  0  0  0  0  0  0  0  0  0  0  0
   -1.3915   -2.1984    0.0000 C   0  0  0  0  0  0  0  0  0  0  0  0
    1.2161   -3.6836    0.0000 C   0  0  0  0  0  0  0  0  0  0  0  0
   -1.4266   -3.6836    0.0000 C   0  0  0  0  0  0  0  0  0  0  0  0
   -0.1403   -4.3969    0.0000 C   0  0  0  0  0  0  0  0  0  0  0  0
   -0.1754   -5.8821    0.0000 C   0  0  0  0  0  0  0  0  0  0  0  0
   -1.5319   -6.5954    0.0000 C   0  0  0  0  0  0  0  0  0  0  0  0
    1.1109   -6.5954    0.0000 C   0  0  0  0  0  0  0  0  0  0  0  0
   -2.8884   -5.8002    0.0000 O   0  0  0  0  0  0  0  0  0  0  0  0
   -1.5670   -8.0806    0.0000 C   0  0  0  0  0  0  0  0  0  0  0  0
    1.0758   -8.0806    0.0000 C   0  0  0  0  0  0  0  0  0  0  0  0
   -0.2806   -8.7939    0.0000 C   0  0  0  0  0  0  0  0  0  0  0  0
  1  2  1  0
  2  3  2  0
  2  4  1  0
  3  5  1  0
  4  6  2  0
  5  7  2  0
  7  8  1  0
  8  9  1  0
  8 10  1  0
  9 11  1  0
  9 12  1  0
 10 13  1  0
 12 14  1  0
  6  7  1  0
 13 14  1  0
M  END
>  <Structure No>
224

>  <Molecule Name>
ciclohexanol​

>  <PubChem CID>
20487437

>  <SMILES>
OC(CCCC1)C1c(cc1)ccc1F

>  <InChIKey>
WOONSTDBFNVLTK-UHFFFAOYSA-N

>  <Molecular Formula>
C12H15OF

>  <Target Organism>
Anopheles spp.

>  <Reference DOI>
10.1186/s13071-017-2122-8

>  <Activity Label>
1

>  <Repellency>
Active

>  <IUPAC>
2-(4-fluorophenyl)cyclohexan-1-ol

>  <Common name>
ciclohexanol​

$$$$
Compound 225
     RDKit          2D

 14 15  0  0  0  0  0  0  0  0999 V2000
    0.0000    0.0000    0.0000 O   0  0  0  0  0  0  0  0  0  0  0  0
   -1.3356   -0.7210    0.0000 C   0  0  0  0  0  0  0  0  0  0  0  0
   -2.6713    0.0591    0.0000 O   0  0  0  0  0  0  0  0  0  0  0  0
   -1.3711   -2.1867    0.0000 C   0  0  0  0  0  0  0  0  0  0  0  0
   -4.0070   -0.6619    0.0000 C   0  0  0  0  0  0  0  0  0  0  0  0
   -0.0709   -1.4656    0.0000 O   0  0  0  0  0  0  0  0  0  0  0  0
   -2.6240   -3.0377    0.0000 C   0  0  0  0  0  0  0  0  0  0  0  0
   -0.1891   -3.0377    0.0000 C   0  0  0  0  0  0  0  0  0  0  0  0
   -5.4135   -0.0118    0.0000 C   0  0  0  0  0  0  0  0  0  0  0  0
   -4.1961   -2.1157    0.0000 C   0  0  0  0  0  0  0  0  0  0  0  0
   -2.1985   -4.4325    0.0000 C   0  0  0  0  0  0  0  0  0  0  0  0
   -0.6855   -4.4325    0.0000 C   0  0  0  0  0  0  0  0  0  0  0  0
   -6.4537   -1.0874    0.0000 C   0  0  0  0  0  0  0  0  0  0  0  0
   -5.6972   -2.3876    0.0000 C   0  0  0  0  0  0  0  0  0  0  0  0
  1  2  2  0
  2  3  1  0
  2  4  1  0
  3  5  1  0
  4  6  1  0
  4  7  1  0
  4  8  1  0
  5  9  1  0
  5 10  1  0
  7 11  1  0
  8 12  1  0
  9 13  1  0
 10 14  1  0
 11 12  1  0
 13 14  1  0
M  END
>  <Structure No>
225

>  <Molecule Name>
Cyclopentan-1-ol-1-carboxylic acid, cyclopentyl ester

>  <PubChem CID>
Not found

>  <SMILES>
OC1(CCCC1)C(OC1CCCC1)=O

>  <InChIKey>
ZYRCTBDETAWINP-UHFFFAOYSA-N

>  <Molecular Formula>
C11H18O3

>  <Target Organism>
Aedes aegypti

>  <Reference DOI>
10.3390/toxics11100837

>  <Activity Label>
1

>  <Repellency>
Active

>  <IUPAC>


>  <Common name>
Cyclopentan-1-ol-1-carboxylic acid, cyclopentyl ester

$$$$
Compound 226
     RDKit          2D

  0  0  0  0  0  0  0  0  0  0999 V3000
M  V30 BEGIN CTAB
M  V30 COUNTS 14 15 0 0 0
M  V30 BEGIN ATOM
M  V30 1 O 0.000000 0.000000 0.000000 0
M  V30 2 C -0.344400 1.484500 0.000000 0
M  V30 3 O 0.605600 2.612700 0.000000 0
M  V30 4 C -1.733900 2.137700 0.000000 0
M  V30 5 C -0.154300 3.931000 0.000000 0
M  V30 6 O -1.615100 3.646000 0.000000 0
M  V30 7 C -3.052200 1.425100 0.000000 0
M  V30 8 C 1.009400 4.833600 0.000000 0
M  V30 9 C -0.344400 5.439300 0.000000 0
M  V30 10 C -4.370400 2.197100 0.000000 0
M  V30 11 C -3.087800 -0.023700 0.000000 0
M  V30 12 C -5.688700 1.484500 0.000000 0
M  V30 13 C -4.406000 -0.736300 0.000000 0
M  V30 14 C -5.724300 0.035600 0.000000 0
M  V30 END ATOM
M  V30 BEGIN BOND
M  V30 1 2 1 2
M  V30 2 1 2 3
M  V30 3 1 2 4
M  V30 4 1 3 5
M  V30 5 1 4 6
M  V30 6 1 4 7 CFG=1
M  V30 7 1 5 8
M  V30 8 1 5 9
M  V30 9 2 7 10
M  V30 10 1 7 11
M  V30 11 1 10 12
M  V30 12 2 11 13
M  V30 13 2 12 14
M  V30 14 1 5 6
M  V30 15 1 13 14
M  V30 END BOND
M  V30 BEGIN COLLECTION
M  V30 MDLV30/STERAC1 ATOMS=(1 4)
M  V30 END COLLECTION
M  V30 END CTAB
M  END
>  <Structure No>
226

>  <Molecule Name>
2,2-Dimethyl-5-phenyl-1,3-dioxolan-4-one

>  <PubChem CID>
236010

>  <SMILES>
CC(C)(OC1c2ccccc2)OC1=O

>  <InChIKey>
JKKLKPFEVGIRGI-SECBINFHSA-N

>  <Molecular Formula>
C11H12O3

>  <Target Organism>
Aedes aegypti

>  <Reference DOI>
10.3390/toxics11100837

>  <Activity Label>
1

>  <Repellency>
Active

>  <IUPAC>
2,2-dimethyl-5-phenyl-1,3-dioxolan-4-one

>  <Common name>
2,2-Dimethyl-5-phenyl-1,3-dioxolan-4-one

$$$$
Compound 227
     RDKit          2D

 14 15  0  0  0  0  0  0  0  0999 V2000
    0.0000    0.0000    0.0000 O   0  0  0  0  0  0  0  0  0  0  0  0
    0.2773    1.4952    0.0000 C   0  0  0  0  0  0  0  0  0  0  0  0
   -1.5193   -0.1205    0.0000 C   0  0  0  0  0  0  0  0  0  0  0  0
   -1.0490    2.2669    0.0000 C   0  0  0  0  0  0  0  0  0  0  0  0
    1.5314    2.2549    0.0000 C   0  0  0  0  0  0  0  0  0  0  0  0
   -2.1825    1.2781    0.0000 O   0  0  0  0  0  0  0  0  0  0  0  0
   -1.0852    3.7983    0.0000 C   0  0  0  0  0  0  0  0  0  0  0  0
    1.4952    3.7863    0.0000 C   0  0  0  0  0  0  0  0  0  0  0  0
    0.1688    4.5701    0.0000 C   0  0  0  0  0  0  0  0  0  0  0  0
    2.7493    4.5580    0.0000 C   0  0  0  0  0  0  0  0  0  0  0  0
    4.0033    3.8225    0.0000 O   0  0  0  0  0  0  0  0  0  0  0  0
    5.2574    4.5942    0.0000 C   0  0  0  0  0  0  0  0  0  0  0  0
    6.5115    3.8586    0.0000 C   0  0  0  0  0  0  0  0  0  0  0  0
    7.7655    4.6304    0.0000 C   0  0  0  0  0  0  0  0  0  0  0  0
  1  2  1  0
  1  3  1  0
  2  4  2  0
  2  5  1  0
  3  6  1  0
  4  7  1  0
  5  8  2  0
  7  9  2  0
  8 10  1  0
 10 11  1  0
 11 12  1  0
 12 13  1  0
 13 14  1  0
  4  6  1  0
  8  9  1  0
M  END
>  <Structure No>
227

>  <Molecule Name>
Piperonyl alcohol, n-propyl ether

>  <PubChem CID>
10262036

>  <SMILES>
CCCOCc(cc1)cc2c1OCO2

>  <InChIKey>
UOERABCMIUSRNK-UHFFFAOYSA-N

>  <Molecular Formula>
C11H14O3

>  <Target Organism>
Aedes aegypti

>  <Reference DOI>
10.3390/toxics11100837

>  <Activity Label>
1

>  <Repellency>
Active

>  <IUPAC>
5-(propoxymethyl)-1,3-benzodioxole

>  <Common name>
Piperonyl alcohol, n-propyl ether

$$$$
Compound 228
     RDKit          2D

  0  0  0  0  0  0  0  0  0  0999 V3000
M  V30 BEGIN CTAB
M  V30 COUNTS 14 15 0 0 0
M  V30 BEGIN ATOM
M  V30 1 O 0.000000 0.000000 0.000000 0
M  V30 2 C 1.080800 -0.973900 0.000000 0
M  V30 3 C 0.890800 -2.434900 0.000000 0
M  V30 4 C 2.518100 -0.629500 0.000000 0
M  V30 5 C -0.451300 -3.171300 0.000000 0
M  V30 6 C 2.233000 -3.016900 0.000000 0
M  V30 7 C 3.242600 -1.900400 0.000000 0
M  V30 8 O -0.486900 -4.644200 0.000000 0
M  V30 9 O -1.793500 -2.387400 0.000000 0
M  V30 10 C -3.135700 -3.112000 0.000000 0
M  V30 11 C -4.549200 -2.458700 0.000000 0
M  V30 12 C -3.325800 -4.572900 0.000000 0
M  V30 13 C -5.594400 -3.539600 0.000000 0
M  V30 14 C -4.834200 -4.846100 0.000000 0
M  V30 END ATOM
M  V30 BEGIN BOND
M  V30 1 2 1 2
M  V30 2 1 2 3
M  V30 3 1 2 4
M  V30 4 1 3 5 CFG=1
M  V30 5 1 3 6
M  V30 6 1 4 7
M  V30 7 2 5 8
M  V30 8 1 5 9
M  V30 9 1 9 10
M  V30 10 1 10 11
M  V30 11 1 10 12
M  V30 12 1 11 13
M  V30 13 1 12 14
M  V30 14 1 6 7
M  V30 15 1 13 14
M  V30 END BOND
M  V30 BEGIN COLLECTION
M  V30 MDLV30/STERAC1 ATOMS=(1 3)
M  V30 END COLLECTION
M  V30 END CTAB
M  END
>  <Structure No>
228

>  <Molecule Name>
Cyclopentanecarboxylicacid, 2-oxo-, cyclopentyl ester

>  <PubChem CID>
245446

>  <SMILES>
O=C(C(CCC1)C1=O)OC1CCCC1

>  <InChIKey>
RZRVIRJEPBNSPC-SECBINFHSA-N

>  <Molecular Formula>
C11H16O3

>  <Target Organism>
Aedes aegypti

>  <Reference DOI>
10.3390/toxics11100837

>  <Activity Label>
1

>  <Repellency>
Active

>  <IUPAC>
cyclopentyl 2-oxocyclopentane-1-carboxylate

>  <Common name>
Cyclopentanecarboxylicacid, 2-oxo-, cyclopentyl ester

$$$$
Compound 229
     RDKit          2D

 14 15  0  0  0  0  0  0  0  0999 V2000
    0.0000    0.0000    0.0000 O   0  0  0  0  0  0  0  0  0  0  0  0
   -1.3359    0.7651    0.0000 N   0  0  0  0  0  0  0  0  0  0  0  0
   -1.3723    2.3075    0.0000 O   0  0  0  0  0  0  0  0  0  0  0  0
   -2.6719    0.0242    0.0000 C   0  0  0  0  0  0  0  0  0  0  0  0
   -2.7083   -1.4452    0.0000 C   0  0  0  0  0  0  0  0  0  0  0  0
   -4.0078    0.8015    0.0000 C   0  0  0  0  0  0  0  0  0  0  0  0
   -1.6395   -2.4047    0.0000 C   0  0  0  0  0  0  0  0  0  0  0  0
   -4.0443   -2.1739    0.0000 C   0  0  0  0  0  0  0  0  0  0  0  0
   -5.3438    0.0728    0.0000 C   0  0  0  0  0  0  0  0  0  0  0  0
   -0.2064   -2.0525    0.0000 O   0  0  0  0  0  0  0  0  0  0  0  0
   -2.3075   -3.7406    0.0000 N   0  0  0  0  0  0  0  0  0  0  0  0
   -3.7649   -3.6070    0.0000 C   0  0  0  0  0  0  0  0  0  0  0  0
   -5.3802   -1.3966    0.0000 C   0  0  0  0  0  0  0  0  0  0  0  0
   -4.7972   -4.6758    0.0000 O   0  0  0  0  0  0  0  0  0  0  0  0
  1  2  2  0
  2  3  1  0
  2  4  1  0
  4  5  2  0
  4  6  1  0
  5  7  1  0
  5  8  1  0
  6  9  2  0
  7 10  2  0
  7 11  1  0
  8 12  1  0
  8 13  2  0
 12 14  2  0
  9 13  1  0
 11 12  1  0
M  CHG  2   2   1   3  -1
M  END
>  <Structure No>
229

>  <Molecule Name>
3-Nitrophthalimide

>  <PubChem CID>
11779

>  <SMILES>
[O-][N+](c(cccc1C(N2)=O)c1C2=O)=O

>  <InChIKey>
BONIIQYTWOPUQI-UHFFFAOYSA-N

>  <Molecular Formula>
C8H4N2O4

>  <Target Organism>
Aedes aegypti

>  <Reference DOI>
10.3390/toxics11100837

>  <Activity Label>
1

>  <Repellency>
Active

>  <IUPAC>
4-nitroisoindole-1,3-dione

>  <Common name>
3-Nitrophthalimide

$$$$
Compound 230
     RDKit          2D

 14 15  0  0  0  0  0  0  0  0999 V2000
    0.0000    0.0000    0.0000 O   0  0  0  0  0  0  0  0  0  0  0  0
   -1.1265    1.0187    0.0000 C   0  0  0  0  0  0  0  0  0  0  0  0
   -1.0067    2.5288    0.0000 N   0  0  0  0  0  0  0  0  0  0  0  0
   -2.6127    0.7430    0.0000 C   0  0  0  0  0  0  0  0  0  0  0  0
   -2.3970    3.1880    0.0000 C   0  0  0  0  0  0  0  0  0  0  0  0
    0.2397    3.2958    0.0000 C   0  0  0  0  0  0  0  0  0  0  0  0
   -3.3797    2.0614    0.0000 C   0  0  0  0  0  0  0  0  0  0  0  0
   -3.3797   -0.5033    0.0000 C   0  0  0  0  0  0  0  0  0  0  0  0
   -2.7445    4.6741    0.0000 O   0  0  0  0  0  0  0  0  0  0  0  0
    1.4861    2.5648    0.0000 C   0  0  0  0  0  0  0  0  0  0  0  0
   -4.9018    2.0973    0.0000 C   0  0  0  0  0  0  0  0  0  0  0  0
   -4.9018   -0.4674    0.0000 C   0  0  0  0  0  0  0  0  0  0  0  0
    2.7325    3.3318    0.0000 C   0  0  0  0  0  0  0  0  0  0  0  0
   -5.6689    0.8509    0.0000 C   0  0  0  0  0  0  0  0  0  0  0  0
  1  2  2  0
  2  3  1  0
  2  4  1  0
  3  5  1  0
  3  6  1  0
  4  7  1  0
  4  8  1  0
  5  9  2  0
  6 10  1  0
  7 11  1  0
  8 12  1  0
 10 13  1  0
 11 14  1  0
  5  7  1  0
 12 14  2  0
M  END
>  <Structure No>
230

>  <Molecule Name>
N-Propyl-4-cyclohexene-1,2-dicarboximide

>  <PubChem CID>
16236

>  <SMILES>
CCCN(C(C1C2CC=CC1)=O)C2=O

>  <InChIKey>
BAPLXEYNVOWNPO-UHFFFAOYSA-N

>  <Molecular Formula>
C11H15NO2

>  <Target Organism>
Aedes aegypti

>  <Reference DOI>
10.3390/toxics11100837

>  <Activity Label>
1

>  <Repellency>
Active

>  <IUPAC>
2-propyl-3a,4,7,7a-tetrahydroisoindole-1,3-dione

>  <Common name>
N-Propyl-4-cyclohexene-1,2-dicarboximide

$$$$
Compound 231
     RDKit          2D

 14 15  0  0  0  0  0  0  0  0999 V2000
    0.0000    0.0000    0.0000 O   0  0  0  0  0  0  0  0  0  0  0  0
   -1.1265    1.0187    0.0000 C   0  0  0  0  0  0  0  0  0  0  0  0
   -1.0067    2.5288    0.0000 N   0  0  0  0  0  0  0  0  0  0  0  0
   -2.6127    0.7430    0.0000 C   0  0  0  0  0  0  0  0  0  0  0  0
   -2.3970    3.1880    0.0000 C   0  0  0  0  0  0  0  0  0  0  0  0
    0.2397    3.2958    0.0000 C   0  0  0  0  0  0  0  0  0  0  0  0
   -3.3797    2.0614    0.0000 C   0  0  0  0  0  0  0  0  0  0  0  0
   -3.3797   -0.5033    0.0000 C   0  0  0  0  0  0  0  0  0  0  0  0
   -2.7445    4.6741    0.0000 O   0  0  0  0  0  0  0  0  0  0  0  0
    1.4861    2.5648    0.0000 C   0  0  0  0  0  0  0  0  0  0  0  0
   -4.9018    2.0973    0.0000 C   0  0  0  0  0  0  0  0  0  0  0  0
   -4.9018   -0.4674    0.0000 C   0  0  0  0  0  0  0  0  0  0  0  0
    2.7325    3.3318    0.0000 C   0  0  0  0  0  0  0  0  0  0  0  0
   -5.6689    0.8509    0.0000 C   0  0  0  0  0  0  0  0  0  0  0  0
  1  2  2  0
  2  3  1  0
  2  4  1  0
  3  5  1  0
  3  6  1  0
  4  7  1  0
  4  8  1  0
  5  9  2  0
  6 10  1  0
  7 11  1  0
  8 12  1  0
 10 13  1  0
 11 14  1  0
  5  7  1  0
 12 14  1  0
M  END
>  <Structure No>
231

>  <Molecule Name>
2-Propyl-3a,4,5,6,7,7a-hexahydroisoindole-1,3-dione

>  <PubChem CID>
17296589

>  <SMILES>
CCCN(C(C1C2CCCC1)=O)C2=O

>  <InChIKey>
RAJQCJDROPVISC-UHFFFAOYSA-N

>  <Molecular Formula>
C11H17NO2

>  <Target Organism>
Aedes aegypti

>  <Reference DOI>
10.3390/toxics11100837

>  <Activity Label>
1

>  <Repellency>
Active

>  <IUPAC>
2-propyl-3a,4,5,6,7,7a-hexahydroisoindole-1,3-dione

>  <Common name>
2-Propyl-3a,4,5,6,7,7a-hexahydroisoindole-1,3-dione

$$$$
Compound 232
     RDKit          2D

 14 15  0  0  0  0  0  0  0  0999 V2000
    0.0000    0.0000    0.0000 O   0  0  0  0  0  0  0  0  0  0  0  0
   -0.0364    1.5411    0.0000 C   0  0  0  0  0  0  0  0  0  0  0  0
   -1.3712    2.3178    0.0000 O   0  0  0  0  0  0  0  0  0  0  0  0
    1.2256    2.3178    0.0000 C   0  0  0  0  0  0  0  0  0  0  0  0
   -2.7061    1.5775    0.0000 C   0  0  0  0  0  0  0  0  0  0  0  0
    2.4877    1.5775    0.0000 N   0  0  0  0  0  0  0  0  0  0  0  0
   -4.1138    2.2450    0.0000 C   0  0  0  0  0  0  0  0  0  0  0  0
   -2.9003    0.1213    0.0000 C   0  0  0  0  0  0  0  0  0  0  0  0
    2.6090    0.1213    0.0000 C   0  0  0  0  0  0  0  0  0  0  0  0
    3.8225    2.2450    0.0000 C   0  0  0  0  0  0  0  0  0  0  0  0
   -5.1453    1.1771    0.0000 C   0  0  0  0  0  0  0  0  0  0  0  0
   -4.4050   -0.1577    0.0000 C   0  0  0  0  0  0  0  0  0  0  0  0
    4.0410   -0.1577    0.0000 C   0  0  0  0  0  0  0  0  0  0  0  0
    4.7812    1.1771    0.0000 C   0  0  0  0  0  0  0  0  0  0  0  0
  1  2  2  0
  2  3  1  0
  2  4  1  0
  3  5  1  0
  4  6  1  0
  5  7  1  0
  5  8  1  0
  6  9  1  0
  6 10  1  0
  7 11  1  0
  8 12  1  0
  9 13  2  0
 10 14  2  0
 11 12  1  0
 13 14  1  0
M  END
>  <Structure No>
232

>  <Molecule Name>
Cyclopentyl 1h-pyrrol-1-ylacetate

>  <PubChem CID>
245442

>  <SMILES>
O=C(C[n]1cccc1)OC1CCCC1

>  <InChIKey>
TXXIKPPXROLWAI-UHFFFAOYSA-N

>  <Molecular Formula>
C11H15NO2

>  <Target Organism>
Aedes aegypti

>  <Reference DOI>
10.3390/toxics11100837

>  <Activity Label>
1

>  <Repellency>
Active

>  <IUPAC>
cyclopentyl 2-pyrrol-1-ylacetate

>  <Common name>
Cyclopentyl 1h-pyrrol-1-ylacetate

$$$$
Compound 233
     RDKit          2D

 14 15  0  0  0  0  0  0  0  0999 V2000
    0.0000    0.0000    0.0000 O   0  0  0  0  0  0  0  0  0  0  0  0
   -1.3160    0.7537    0.0000 C   0  0  0  0  0  0  0  0  0  0  0  0
   -1.3519    2.2732    0.0000 N   0  0  0  0  0  0  0  0  0  0  0  0
   -2.6321    0.0239    0.0000 C   0  0  0  0  0  0  0  0  0  0  0  0
   -2.6680    3.0389    0.0000 C   0  0  0  0  0  0  0  0  0  0  0  0
   -0.1076    3.0389    0.0000 C   0  0  0  0  0  0  0  0  0  0  0  0
   -3.9482    0.7896    0.0000 C   0  0  0  0  0  0  0  0  0  0  0  0
   -2.6680   -1.4237    0.0000 C   0  0  0  0  0  0  0  0  0  0  0  0
   -2.7039    4.5584    0.0000 C   0  0  0  0  0  0  0  0  0  0  0  0
   -0.1435    4.5584    0.0000 C   0  0  0  0  0  0  0  0  0  0  0  0
   -5.2643    0.0598    0.0000 C   0  0  0  0  0  0  0  0  0  0  0  0
   -3.9841   -2.1535    0.0000 C   0  0  0  0  0  0  0  0  0  0  0  0
   -1.4596    5.3241    0.0000 C   0  0  0  0  0  0  0  0  0  0  0  0
   -5.3002   -1.3878    0.0000 C   0  0  0  0  0  0  0  0  0  0  0  0
  1  2  2  0
  2  3  1  0
  2  4  1  0
  3  5  1  0
  3  6  1  0
  4  7  2  0
  4  8  1  0
  5  9  1  0
  6 10  1  0
  7 11  1  0
  8 12  2  0
  9 13  1  0
 11 14  2  0
 10 13  1  0
 12 14  1  0
M  END
>  <Structure No>
233

>  <Molecule Name>
Benzoylpiperidine

>  <PubChem CID>
69892

>  <SMILES>
O=C(c1ccccc1)N1CCCCC1

>  <InChIKey>
YXTROGRGRSPWKL-UHFFFAOYSA-N

>  <Molecular Formula>
C12H15NO

>  <Target Organism>
Aedes aegypti

>  <Reference DOI>
10.1371/annotation/1dc83f26-8045-4b63-8a86-24c7b71a7f79

>  <Activity Label>
1

>  <Repellency>
Active

>  <IUPAC>
phenyl(piperidin-1-yl)methanone

>  <Common name>
Benzoylpiperidine

$$$$
Compound 234
     RDKit          2D

 14 16  0  0  0  0  0  0  0  0999 V2000
    0.0000    0.0000    0.0000 O   0  0  0  0  0  0  0  0  0  0  0  0
    1.2653   -0.6266    0.0000 C   0  0  0  0  0  0  0  0  0  0  0  0
    2.5909    0.3494    0.0000 O   0  0  0  0  0  0  0  0  0  0  0  0
    1.1569   -2.1571    0.0000 C   0  0  0  0  0  0  0  0  0  0  0  0
    3.9045   -0.3374    0.0000 C   0  0  0  0  0  0  0  0  0  0  0  0
    2.4825   -2.8079    0.0000 C   0  0  0  0  0  0  0  0  0  0  0  0
    3.7961   -1.8076    0.0000 C   0  0  0  0  0  0  0  0  0  0  0  0
    5.1819    0.5784    0.0000 C   0  0  0  0  0  0  0  0  0  0  0  0
    5.0735   -2.4343    0.0000 C   0  0  0  0  0  0  0  0  0  0  0  0
    6.4594   -0.0482    0.0000 C   0  0  0  0  0  0  0  0  0  0  0  0
    6.3509   -1.4822    0.0000 C   0  0  0  0  0  0  0  0  0  0  0  0
    7.8452    0.5061    0.0000 O   0  0  0  0  0  0  0  0  0  0  0  0
    7.7368   -1.8197    0.0000 C   0  0  0  0  0  0  0  0  0  0  0  0
    8.7009   -0.6748    0.0000 C   0  0  0  0  0  0  0  0  0  0  0  0
  1  2  2  0
  2  3  1  0
  2  4  1  0
  3  5  1  0
  4  6  2  0
  5  7  2  0
  5  8  1  0
  7  9  1  0
  8 10  2  0
  9 11  2  0
 10 12  1  0
 11 13  1  0
 12 14  1  0
  6  7  1  0
 10 11  1  0
 13 14  2  0
M  END
>  <Structure No>
234

>  <Molecule Name>
Psoralen

>  <PubChem CID>
6199

>  <SMILES>
O=C(C=C1)Oc2c1cc(cc[o]1)c1c2

>  <InChIKey>
ZCCUUQDIBDJBTK-UHFFFAOYSA-N

>  <Molecular Formula>
C11H6O3

>  <Target Organism>
Anopheles spp.

>  <Reference DOI>
10.1186/s13071-017-2122-8

>  <Activity Label>
1

>  <Repellency>
Active

>  <IUPAC>
furo[3,2-g]chromen-7-one

>  <Common name>
Psoralen

$$$$
Compound 235
     RDKit          2D

 15 14  0  0  0  0  0  0  0  0999 V2000
    0.0000    0.0000    0.0000 C   0  0  0  0  0  0  0  0  0  0  0  0
    1.2144    0.8280    0.0000 C   0  0  0  0  0  0  0  0  0  0  0  0
   -0.0662   -1.4021    0.0000 C   0  0  0  0  0  0  0  0  0  0  0  0
   -1.3469    0.8280    0.0000 C   0  0  0  0  0  0  0  0  0  0  0  0
    2.4288    0.1324    0.0000 C   0  0  0  0  0  0  0  0  0  0  0  0
   -2.6938    0.1324    0.0000 C   0  0  0  0  0  0  0  0  0  0  0  0
   -4.0407    0.9605    0.0000 C   0  0  0  0  0  0  0  0  0  0  0  0
   -5.3876    0.2980    0.0000 C   0  0  0  0  0  0  0  0  0  0  0  0
   -6.7345    1.1261    0.0000 C   0  0  0  0  0  0  0  0  0  0  0  0
   -5.4539   -1.1040    0.0000 C   0  0  0  0  0  0  0  0  0  0  0  0
   -8.0815    0.4526    0.0000 C   0  0  0  0  0  0  0  0  0  0  0  0
   -9.4284    1.2806    0.0000 C   0  0  0  0  0  0  0  0  0  0  0  0
  -10.7753    0.6403    0.0000 C   0  0  0  0  0  0  0  0  0  0  0  0
  -12.1222    1.4683    0.0000 C   0  0  0  0  0  0  0  0  0  0  0  0
  -10.8415   -0.7617    0.0000 C   0  0  0  0  0  0  0  0  0  0  0  0
  1  2  1  0
  1  3  2  0
  1  4  1  0
  2  5  2  0
  4  6  1  0
  6  7  1  0
  7  8  2  3
  8  9  1  0
  8 10  1  0
  9 11  1  0
 11 12  1  0
 12 13  2  0
 13 14  1  0
 13 15  1  0
M  END
>  <Structure No>
235

>  <Molecule Name>
7,11-Dimethyl-3-methylene-1,6,10-dodecatriene

>  <PubChem CID>
10407

>  <SMILES>
CC(C)=CCCC(C)=CCCC(C=C)=C

>  <InChIKey>
JSNRRGGBADWTMC-UHFFFAOYSA-N

>  <Molecular Formula>
C15H24

>  <Target Organism>
Myzus persicae

>  <Reference DOI>
10.1021/acs.jafc.4c04326

>  <Activity Label>
1

>  <Repellency>
Active

>  <IUPAC>
7,11-dimethyl-3-methylidenedodeca-1,6,10-triene

>  <Common name>
7,11-Dimethyl-3-methylene-1,6,10-dodecatriene

$$$$
Compound 236
     RDKit          2D

 15 14  0  0  0  0  0  0  0  0999 V2000
    0.0000    0.0000    0.0000 O   0  0  0  0  0  0  0  0  0  0  0  0
    0.0000   -1.4996    0.0000 C   0  0  0  0  0  0  0  0  0  0  0  0
    1.2989   -2.2553    0.0000 O   0  0  0  0  0  0  0  0  0  0  0  0
   -1.2989   -2.2553    0.0000 C   0  0  0  0  0  0  0  0  0  0  0  0
    2.5978   -1.5114    0.0000 C   0  0  0  0  0  0  0  0  0  0  0  0
   -2.5978   -1.5114    0.0000 C   0  0  0  0  0  0  0  0  0  0  0  0
   -3.8967   -2.2671    0.0000 C   0  0  0  0  0  0  0  0  0  0  0  0
   -5.1956   -1.5232    0.0000 C   0  0  0  0  0  0  0  0  0  0  0  0
   -6.4945   -2.2789    0.0000 C   0  0  0  0  0  0  0  0  0  0  0  0
   -7.7934   -1.5350    0.0000 C   0  0  0  0  0  0  0  0  0  0  0  0
   -9.0923   -2.2907    0.0000 C   0  0  0  0  0  0  0  0  0  0  0  0
  -10.3912   -1.5468    0.0000 C   0  0  0  0  0  0  0  0  0  0  0  0
  -11.6901   -2.3025    0.0000 C   0  0  0  0  0  0  0  0  0  0  0  0
  -12.9890   -1.5586    0.0000 C   0  0  0  0  0  0  0  0  0  0  0  0
  -14.2879   -2.3144    0.0000 C   0  0  0  0  0  0  0  0  0  0  0  0
  1  2  2  0
  2  3  1  0
  2  4  1  0
  3  5  1  0
  4  6  1  0
  6  7  1  0
  7  8  1  0
  8  9  1  0
  9 10  1  0
 10 11  1  0
 11 12  1  0
 12 13  1  0
 13 14  1  0
 14 15  1  0
M  END
>  <Structure No>
236

>  <Molecule Name>
Methyl Laurate

>  <PubChem CID>
8139

>  <SMILES>
CCCCCCCCCCCC(OC)=O

>  <InChIKey>
UQDUPQYQJKYHQI-UHFFFAOYSA-N

>  <Molecular Formula>
C13H26O2

>  <Target Organism>
Aedes aegypti

>  <Reference DOI>
10.1002/ps.5994

>  <Activity Label>
1

>  <Repellency>
Active

>  <IUPAC>


>  <Common name>
Methyl Laurate

$$$$
Compound 237
     RDKit          2D

 15 14  0  0  0  0  0  0  0  0999 V2000
    0.0000    0.0000    0.0000 O   0  0  0  0  0  0  0  0  0  0  0  0
   -0.0362   -1.4617    0.0000 C   0  0  0  0  0  0  0  0  0  0  0  0
   -1.3650   -2.1985    0.0000 O   0  0  0  0  0  0  0  0  0  0  0  0
    1.2201   -2.1985    0.0000 C   0  0  0  0  0  0  0  0  0  0  0  0
   -2.6938   -1.4133    0.0000 C   0  0  0  0  0  0  0  0  0  0  0  0
    2.4764   -1.4133    0.0000 C   0  0  0  0  0  0  0  0  0  0  0  0
   -4.0227   -2.1502    0.0000 C   0  0  0  0  0  0  0  0  0  0  0  0
    3.7327   -2.1502    0.0000 C   0  0  0  0  0  0  0  0  0  0  0  0
   -5.3515   -1.3771    0.0000 C   0  0  0  0  0  0  0  0  0  0  0  0
   -4.0589   -3.6119    0.0000 C   0  0  0  0  0  0  0  0  0  0  0  0
   -5.3877    0.1570    0.0000 O   0  0  0  0  0  0  0  0  0  0  0  0
   -6.6803   -2.1140    0.0000 C   0  0  0  0  0  0  0  0  0  0  0  0
   -2.8026   -4.3367    0.0000 C   0  0  0  0  0  0  0  0  0  0  0  0
   -8.0091   -1.3409    0.0000 C   0  0  0  0  0  0  0  0  0  0  0  0
   -9.3380   -2.0777    0.0000 C   0  0  0  0  0  0  0  0  0  0  0  0
  1  2  2  0
  2  3  1  0
  2  4  1  0
  3  5  1  0
  4  6  1  0
  5  7  1  0
  6  8  1  0
  7  9  1  0
  7 10  1  0
  9 11  1  0
  9 12  1  0
 10 13  1  0
 12 14  1  0
 14 15  1  0
M  END
>  <Structure No>
237

>  <Molecule Name>
2-Ethyl-3-hydroxyhexyl butanoate

>  <PubChem CID>
347867

>  <SMILES>
CCCC(C(CC)COC(CCC)=O)O

>  <InChIKey>
LDXCVXVVGCHCKA-UHFFFAOYSA-N

>  <Molecular Formula>
C12H24O3

>  <Target Organism>
Aedes aegypti

>  <Reference DOI>
10.3390/toxics11100837

>  <Activity Label>
1

>  <Repellency>
Active

>  <IUPAC>
(2-ethyl-3-hydroxyhexyl) butanoate

>  <Common name>
2-Ethyl-3-hydroxyhexyl butanoate

$$$$
Compound 238
     RDKit          2D

  0  0  0  0  0  0  0  0  0  0999 V3000
M  V30 BEGIN CTAB
M  V30 COUNTS 15 14 0 0 0
M  V30 BEGIN ATOM
M  V30 1 O 0.000000 0.000000 0.000000 0
M  V30 2 C -0.034400 -1.458800 0.000000 0
M  V30 3 O 1.229100 -2.171000 0.000000 0
M  V30 4 C -1.366900 -2.171000 0.000000 0
M  V30 5 C 2.492600 -1.366900 0.000000 0
M  V30 6 O -1.401400 -3.629800 0.000000 0
M  V30 7 C -2.699400 -1.366900 0.000000 0
M  V30 8 C 3.756200 -2.079100 0.000000 0
M  V30 9 C -4.031900 -2.079100 0.000000 0
M  V30 10 C 5.019700 -1.275000 0.000000 0
M  V30 11 C -5.364300 -1.275000 0.000000 0
M  V30 12 C 6.283300 -2.010200 0.000000 0
M  V30 13 C -6.696800 -2.010200 0.000000 0
M  V30 14 C -8.029300 -1.206100 0.000000 0
M  V30 15 C -9.361800 -1.918300 0.000000 0
M  V30 END ATOM
M  V30 BEGIN BOND
M  V30 1 2 1 2
M  V30 2 1 2 3
M  V30 3 1 2 4
M  V30 4 1 3 5
M  V30 5 1 4 6 CFG=1
M  V30 6 1 4 7
M  V30 7 1 5 8
M  V30 8 1 7 9
M  V30 9 1 8 10
M  V30 10 1 9 11
M  V30 11 1 10 12
M  V30 12 1 11 13
M  V30 13 1 13 14
M  V30 14 1 14 15
M  V30 END BOND
M  V30 BEGIN COLLECTION
M  V30 MDLV30/STERAC1 ATOMS=(1 4)
M  V30 END COLLECTION
M  V30 END CTAB
M  END
>  <Structure No>
238

>  <Molecule Name>
Butyl 2-hydroxyoctanoate

>  <PubChem CID>
347866

>  <SMILES>
CCCCCCC(C(OCCCC)=O)O

>  <InChIKey>
UPDJYNWVCBAVCS-NSHDSACASA-N

>  <Molecular Formula>
C12H24O3

>  <Target Organism>
Aedes aegypti

>  <Reference DOI>
10.3390/toxics11100837

>  <Activity Label>
1

>  <Repellency>
Active

>  <IUPAC>
butyl 2-hydroxyoctanoate

>  <Common name>
Butyl 2-hydroxyoctanoate

$$$$
Compound 239
     RDKit          2D

  0  0  0  0  0  0  0  0  0  0999 V3000
M  V30 BEGIN CTAB
M  V30 COUNTS 15 14 0 0 0
M  V30 BEGIN ATOM
M  V30 1 O 0.000000 0.000000 0.000000 0
M  V30 2 C -1.336300 -0.691200 0.000000 0
M  V30 3 C 1.267200 -0.691200 0.000000 0
M  V30 4 O -1.370900 -2.154300 0.000000 0
M  V30 5 C -2.672700 0.103600 0.000000 0
M  V30 6 C -0.103600 -2.857100 0.000000 0
M  V30 7 C -4.009100 -0.587500 0.000000 0
M  V30 8 C -5.345500 0.195800 0.000000 0
M  V30 9 C -4.043700 -2.050600 0.000000 0
M  V30 10 C -6.681900 -0.495300 0.000000 0
M  V30 11 C -8.018300 0.299500 0.000000 0
M  V30 12 C -9.354700 -0.391700 0.000000 0
M  V30 13 O -10.149600 0.944600 0.000000 0
M  V30 14 C -8.663500 -1.658900 0.000000 0
M  V30 15 C -10.691100 -1.082900 0.000000 0
M  V30 END ATOM
M  V30 BEGIN BOND
M  V30 1 1 1 2
M  V30 2 1 1 3
M  V30 3 1 2 4
M  V30 4 1 2 5
M  V30 5 1 4 6
M  V30 6 1 5 7
M  V30 7 1 7 8
M  V30 8 1 7 9 CFG=1
M  V30 9 1 8 10
M  V30 10 1 10 11
M  V30 11 1 11 12
M  V30 12 1 12 13
M  V30 13 1 12 14
M  V30 14 1 12 15
M  V30 END BOND
M  V30 BEGIN COLLECTION
M  V30 MDLV30/STERAC1 ATOMS=(1 7)
M  V30 END COLLECTION
M  V30 END CTAB
M  END
>  <Structure No>
239

>  <Molecule Name>
Hydroxycitronellal dimethyl acetal

>  <PubChem CID>
8863

>  <SMILES>
CC(CCCC(C)(C)O)CC(OC)OC

>  <InChIKey>
QCJVKUULZGKQDG-JTQLQIEISA-N

>  <Molecular Formula>
C12H26O3

>  <Target Organism>
Aedes aegypti

>  <Reference DOI>
10.3390/toxics11100837

>  <Activity Label>
1

>  <Repellency>
Active

>  <IUPAC>
8,8-dimethoxy-2,6-dimethyloctan-2-ol

>  <Common name>
Hydroxycitronellal dimethyl acetal

$$$$
Compound 240
     RDKit          2D

 15 14  0  0  0  0  0  0  0  0999 V2000
    0.0000    0.0000    0.0000 O   0  0  0  0  0  0  0  0  0  0  0  0
   -1.3183   -0.7310    0.0000 C   0  0  0  0  0  0  0  0  0  0  0  0
   -1.3542   -2.1811    0.0000 O   0  0  0  0  0  0  0  0  0  0  0  0
   -2.6366    0.0359    0.0000 C   0  0  0  0  0  0  0  0  0  0  0  0
   -2.6725   -2.9122    0.0000 C   0  0  0  0  0  0  0  0  0  0  0  0
   -3.9549   -0.6831    0.0000 C   0  0  0  0  0  0  0  0  0  0  0  0
   -2.6725    1.5579    0.0000 C   0  0  0  0  0  0  0  0  0  0  0  0
   -2.7085   -4.3623    0.0000 C   0  0  0  0  0  0  0  0  0  0  0  0
   -5.2732   -1.4021    0.0000 N   0  0  0  0  0  0  0  0  0  0  0  0
   -3.9908    2.3130    0.0000 C   0  0  0  0  0  0  0  0  0  0  0  0
   -1.4261    2.3130    0.0000 C   0  0  0  0  0  0  0  0  0  0  0  0
   -4.0268    3.8350    0.0000 O   0  0  0  0  0  0  0  0  0  0  0  0
   -5.3091    1.5819    0.0000 O   0  0  0  0  0  0  0  0  0  0  0  0
   -6.6274    2.3369    0.0000 C   0  0  0  0  0  0  0  0  0  0  0  0
   -7.9457    1.6059    0.0000 C   0  0  0  0  0  0  0  0  0  0  0  0
  1  2  2  0
  2  3  1  0
  2  4  1  0
  3  5  1  0
  4  6  1  0
  4  7  1  0
  5  8  1  0
  6  9  3  0
  7 10  1  0
  7 11  1  0
 10 12  2  0
 10 13  1  0
 13 14  1  0
 14 15  1  0
M  END
>  <Structure No>
240

>  <Molecule Name>
Diethyl 2-cyano-3-methylbutanedioate

>  <PubChem CID>
249809

>  <SMILES>
CCOC(C(C)C(C(OCC)=O)C#N)=O

>  <InChIKey>
YGEGVBWONVKDHX-UHFFFAOYSA-N

>  <Molecular Formula>
C10H15NO4

>  <Target Organism>
Aedes aegypti

>  <Reference DOI>
10.3390/toxics11100837

>  <Activity Label>
1

>  <Repellency>
Active

>  <IUPAC>
diethyl 2-cyano-3-methylbutanedioate

>  <Common name>
Diethyl 2-cyano-3-methylbutanedioate

$$$$
Compound 241
     RDKit          2D

 15 14  0  0  0  0  0  0  0  0999 V2000
    0.0000    0.0000    0.0000 O   0  0  0  0  0  0  0  0  0  0  0  0
   -0.0862   -1.3924    0.0000 C   0  0  0  0  0  0  0  0  0  0  0  0
   -1.4417   -2.0949    0.0000 N   0  0  0  0  0  0  0  0  0  0  0  0
    1.0967   -2.0949    0.0000 C   0  0  0  0  0  0  0  0  0  0  0  0
   -2.7973   -1.3062    0.0000 C   0  0  0  0  0  0  0  0  0  0  0  0
   -1.5280   -3.4874    0.0000 C   0  0  0  0  0  0  0  0  0  0  0  0
   -4.1528   -2.0086    0.0000 C   0  0  0  0  0  0  0  0  0  0  0  0
   -2.8835   -4.1898    0.0000 C   0  0  0  0  0  0  0  0  0  0  0  0
   -5.5083   -1.2199    0.0000 C   0  0  0  0  0  0  0  0  0  0  0  0
   -2.9698   -5.5823    0.0000 C   0  0  0  0  0  0  0  0  0  0  0  0
   -6.8639   -1.9223    0.0000 O   0  0  0  0  0  0  0  0  0  0  0  0
   -5.5946    0.3450    0.0000 C   0  0  0  0  0  0  0  0  0  0  0  0
   -4.3253   -6.2847    0.0000 C   0  0  0  0  0  0  0  0  0  0  0  0
   -8.2194   -1.1213    0.0000 C   0  0  0  0  0  0  0  0  0  0  0  0
   -9.5749   -1.8238    0.0000 C   0  0  0  0  0  0  0  0  0  0  0  0
  1  2  2  0
  2  3  1  0
  2  4  1  0
  3  5  1  0
  3  6  1  0
  5  7  1  0
  6  8  1  0
  7  9  1  0
  8 10  1  0
  9 11  1  0
  9 12  2  0
 10 13  1  0
 11 14  1  0
 14 15  1  0
M  END
>  <Structure No>
241

>  <Molecule Name>
N-butyl-N-(3-ethoxybut-3-enyl)acetamide

>  <PubChem CID>
144051127

>  <SMILES>
CCCCN(CCC(OCC)=C)C(C)=O

>  <InChIKey>
OUMMWAJUBBXCGA-UHFFFAOYSA-N

>  <Molecular Formula>
C12H23NO2

>  <Target Organism>
Aedes albopictus

>  <Reference DOI>
10.1021/acs.jafc.2c05537

>  <Activity Label>
1

>  <Repellency>
Active

>  <IUPAC>
N-butyl-N-(3-ethoxybut-3-enyl)acetamide

>  <Common name>
N-butyl-N-(3-ethoxybut-3-enyl)acetamide

$$$$
Compound 242
     RDKit          2D

  0  0  0  0  0  0  0  0  0  0999 V3000
M  V30 BEGIN CTAB
M  V30 COUNTS 15 14 0 0 0
M  V30 BEGIN ATOM
M  V30 1 O 0.000000 0.000000 0.000000 0
M  V30 2 C -0.036200 1.535000 0.000000 0
M  V30 3 N 1.220800 2.308600 0.000000 0
M  V30 4 C -1.365800 2.308600 0.000000 0
M  V30 5 C 2.477800 1.571300 0.000000 0
M  V30 6 C 1.184500 3.843700 0.000000 0
M  V30 7 C -2.695400 1.571300 0.000000 0
M  V30 8 C 3.734900 2.344900 0.000000 0
M  V30 9 C 2.441600 4.617300 0.000000 0
M  V30 10 O -1.958100 0.314200 0.000000 0
M  V30 11 C -4.025000 2.344900 0.000000 0
M  V30 12 C -3.469000 0.314200 0.000000 0
M  V30 13 C 4.992000 1.607600 0.000000 0
M  V30 14 C 2.405300 6.152400 0.000000 0
M  V30 15 C -5.354600 1.607600 0.000000 0
M  V30 END ATOM
M  V30 BEGIN BOND
M  V30 1 2 1 2
M  V30 2 1 2 3
M  V30 3 1 2 4
M  V30 4 1 3 5
M  V30 5 1 3 6
M  V30 6 1 4 7
M  V30 7 1 5 8
M  V30 8 1 6 9
M  V30 9 1 7 10
M  V30 10 1 7 11
M  V30 11 1 7 12 CFG=3
M  V30 12 1 8 13
M  V30 13 1 9 14
M  V30 14 1 11 15
M  V30 END BOND
M  V30 BEGIN COLLECTION
M  V30 MDLV30/STERAC1 ATOMS=(1 7)
M  V30 END COLLECTION
M  V30 END CTAB
M  END
>  <Structure No>
242

>  <Molecule Name>
Pentanamide, 3-hydroxy-3-methyl-N,N-dipropyl-

>  <PubChem CID>
347869

>  <SMILES>
CCCN(CCC)C(CC(C)(CC)O)=O

>  <InChIKey>
MXOWRYHZIUEQPM-LBPRGKRZSA-N

>  <Molecular Formula>
C12H25NO2

>  <Target Organism>
Aedes aegypti

>  <Reference DOI>
10.3390/toxics11100837

>  <Activity Label>
1

>  <Repellency>
Active

>  <IUPAC>
3-hydroxy-3-methyl-N,N-dipropylpentanamide

>  <Common name>
Pentanamide, 3-hydroxy-3-methyl-N,N-dipropyl-

$$$$
Compound 243
     RDKit          2D

 15 14  0  0  0  0  0  0  0  0999 V2000
    0.0000    0.0000    0.0000 O   0  0  0  0  0  0  0  0  0  0  0  0
   -0.0364    1.5439    0.0000 C   0  0  0  0  0  0  0  0  0  0  0  0
   -1.3737    2.3220    0.0000 O   0  0  0  0  0  0  0  0  0  0  0  0
    1.2278    2.3220    0.0000 C   0  0  0  0  0  0  0  0  0  0  0  0
   -2.7110    1.5926    0.0000 C   0  0  0  0  0  0  0  0  0  0  0  0
    2.4922    1.5926    0.0000 C   0  0  0  0  0  0  0  0  0  0  0  0
   -4.0484    2.3706    0.0000 C   0  0  0  0  0  0  0  0  0  0  0  0
    3.7566    2.3706    0.0000 C   0  0  0  0  0  0  0  0  0  0  0  0
   -5.3857    1.6412    0.0000 C   0  0  0  0  0  0  0  0  0  0  0  0
    3.7201    3.9146    0.0000 O   0  0  0  0  0  0  0  0  0  0  0  0
    5.0209    1.6412    0.0000 N   0  0  0  0  0  0  0  0  0  0  0  0
    6.2853    2.4193    0.0000 C   0  0  0  0  0  0  0  0  0  0  0  0
    4.9845    0.1702    0.0000 C   0  0  0  0  0  0  0  0  0  0  0  0
    7.5497    1.6898    0.0000 C   0  0  0  0  0  0  0  0  0  0  0  0
    6.2488   -0.5713    0.0000 C   0  0  0  0  0  0  0  0  0  0  0  0
  1  2  2  0
  2  3  1  0
  2  4  1  0
  3  5  1  0
  4  6  1  0
  5  7  1  0
  6  8  1  0
  7  9  1  0
  8 10  2  0
  8 11  1  0
 11 12  1  0
 11 13  1  0
 12 14  1  0
 13 15  1  0
M  END
>  <Structure No>
243

>  <Molecule Name>
Propyl N,N-diethylsuccinamate

>  <PubChem CID>
79913

>  <SMILES>
CCCOC(CCC(N(CC)CC)=O)=O

>  <InChIKey>
UZCDZCKZKAMXMC-UHFFFAOYSA-N

>  <Molecular Formula>
C11H21NO3

>  <Target Organism>
Aedes aegypti

>  <Reference DOI>
10.3390/toxics11100837

>  <Activity Label>
1

>  <Repellency>
Active

>  <IUPAC>
propyl 4-(diethylamino)-4-oxobutanoate

>  <Common name>
Propyl N,N-diethylsuccinamate

$$$$
Compound 244
     RDKit          2D

 15 14  0  0  0  0  0  0  0  0999 V2000
    0.0000    0.0000    0.0000 O   0  0  0  0  0  0  0  0  0  0  0  0
   -0.0364   -1.4706    0.0000 C   0  0  0  0  0  0  0  0  0  0  0  0
   -1.3734   -2.1998    0.0000 O   0  0  0  0  0  0  0  0  0  0  0  0
    1.2275   -2.1998    0.0000 C   0  0  0  0  0  0  0  0  0  0  0  0
   -2.7103   -1.4220    0.0000 C   0  0  0  0  0  0  0  0  0  0  0  0
    2.4915   -1.4220    0.0000 C   0  0  0  0  0  0  0  0  0  0  0  0
   -2.7468    0.1215    0.0000 C   0  0  0  0  0  0  0  0  0  0  0  0
   -4.0473   -2.1512    0.0000 C   0  0  0  0  0  0  0  0  0  0  0  0
    3.7556   -2.1512    0.0000 C   0  0  0  0  0  0  0  0  0  0  0  0
    3.7191   -3.6219    0.0000 O   0  0  0  0  0  0  0  0  0  0  0  0
    5.0196   -1.3734    0.0000 N   0  0  0  0  0  0  0  0  0  0  0  0
    6.2836   -2.1026    0.0000 C   0  0  0  0  0  0  0  0  0  0  0  0
    4.9831    0.1701    0.0000 C   0  0  0  0  0  0  0  0  0  0  0  0
    7.5476   -1.3247    0.0000 C   0  0  0  0  0  0  0  0  0  0  0  0
    3.6462    0.9480    0.0000 C   0  0  0  0  0  0  0  0  0  0  0  0
  1  2  2  0
  2  3  1  0
  2  4  1  0
  3  5  1  0
  4  6  1  0
  5  7  1  0
  5  8  1  0
  6  9  1  0
  9 10  2  0
  9 11  1  0
 11 12  1  0
 11 13  1  0
 12 14  1  0
 13 15  1  0
M  END
>  <Structure No>
244

>  <Molecule Name>
N,N-Diethylsuccinamic acid, iso-propyl ester

>  <PubChem CID>
Not found

>  <SMILES>
CCN(CC)C(CCC(OC(C)C)=O)=O

>  <InChIKey>
WLAIEXGYZQAFTH-UHFFFAOYSA-N

>  <Molecular Formula>
C11H21NO3

>  <Target Organism>
Aedes aegypti

>  <Reference DOI>
10.3390/toxics11100837

>  <Activity Label>
1

>  <Repellency>
Active

>  <IUPAC>


>  <Common name>
N,N-Diethylsuccinamic acid, iso-propyl ester

$$$$
Compound 245
     RDKit          2D

 15 14  0  0  0  0  0  0  0  0999 V2000
    0.0000    0.0000    0.0000 O   0  0  0  0  0  0  0  0  0  0  0  0
   -0.0996   -1.3955    0.0000 C   0  0  0  0  0  0  0  0  0  0  0  0
    1.1075   -2.0047    0.0000 O   0  0  0  0  0  0  0  0  0  0  0  0
   -1.5063   -2.0047    0.0000 C   0  0  0  0  0  0  0  0  0  0  0  0
    2.3148   -1.1186    0.0000 C   0  0  0  0  0  0  0  0  0  0  0  0
   -2.9129   -1.1186    0.0000 C   0  0  0  0  0  0  0  0  0  0  0  0
    3.5221   -1.7278    0.0000 C   0  0  0  0  0  0  0  0  0  0  0  0
   -4.3196   -1.7278    0.0000 N   0  0  0  0  0  0  0  0  0  0  0  0
   -4.4192   -3.1234    0.0000 C   0  0  0  0  0  0  0  0  0  0  0  0
   -5.7262   -0.8417    0.0000 C   0  0  0  0  0  0  0  0  0  0  0  0
   -5.8259   -3.7215    0.0000 O   0  0  0  0  0  0  0  0  0  0  0  0
   -3.2120   -3.7325    0.0000 C   0  0  0  0  0  0  0  0  0  0  0  0
   -7.1328   -1.4509    0.0000 C   0  0  0  0  0  0  0  0  0  0  0  0
   -8.5395   -0.5648    0.0000 C   0  0  0  0  0  0  0  0  0  0  0  0
   -9.9461   -1.1740    0.0000 C   0  0  0  0  0  0  0  0  0  0  0  0
  1  2  2  0
  2  3  1  0
  2  4  1  0
  3  5  1  0
  4  6  1  0
  5  7  1  0
  6  8  1  0
  8  9  1  0
  8 10  1  0
  9 11  2  0
  9 12  1  0
 10 13  1  0
 13 14  1  0
 14 15  1  0
M  END
>  <Structure No>
245

>  <Molecule Name>
Ethyl butylacetylaminopropionate (IR3535)

>  <PubChem CID>
104150

>  <SMILES>
CCCCN(CCC(OCC)=O)C(C)=O

>  <InChIKey>
VZRKEAFHFMSHCD-UHFFFAOYSA-N

>  <Molecular Formula>
C11H21NO3

>  <Target Organism>
An. dirus sl, An. minimus sl, An. maculatus sl, Anopheles barbirostris sl, Ae. aegypti e Ae. albopictus

>  <Reference DOI>
10.1371/journal.pntd.0003326; 10.1016/j.cub.2019.09.007

>  <Activity Label>
1

>  <Repellency>
Active

>  <IUPAC>
ethyl 3-[acetyl(butyl)amino]propanoate

>  <Common name>
Ethyl butylacetylaminopropionate (IR3535)

$$$$
Compound 246
     RDKit          2D

  0  0  0  0  0  0  0  0  0  0999 V3000
M  V30 BEGIN CTAB
M  V30 COUNTS 15 15 0 0 0
M  V30 BEGIN ATOM
M  V30 1 C 0.000000 0.000000 0.000000 0
M  V30 2 C 1.265300 0.781500 0.000000 0
M  V30 3 C -1.364500 0.781500 0.000000 0
M  V30 4 C -0.049600 -1.476200 0.000000 0
M  V30 5 C 2.530600 0.037200 0.000000 0
M  V30 6 C 1.215700 -2.220500 0.000000 0
M  V30 7 C 3.796000 0.843500 0.000000 0
M  V30 8 C 2.481000 -1.426600 0.000000 0
M  V30 9 C 3.746400 2.419000 0.000000 0
M  V30 10 C 5.061300 0.099200 0.000000 0
M  V30 11 C 3.746400 -2.170900 0.000000 0
M  V30 12 C 5.011700 3.212900 0.000000 0
M  V30 13 C 2.381800 3.212900 0.000000 0
M  V30 14 C 5.011700 -1.376900 0.000000 0
M  V30 15 C 3.696700 -3.647100 0.000000 0
M  V30 END ATOM
M  V30 BEGIN BOND
M  V30 1 1 1 2
M  V30 2 2 1 3
M  V30 3 1 1 4
M  V30 4 2 2 5
M  V30 5 1 4 6
M  V30 6 1 5 7
M  V30 7 1 6 8
M  V30 8 1 7 9 CFG=3
M  V30 9 1 7 10
M  V30 10 2 8 11
M  V30 11 1 9 12
M  V30 12 1 9 13
M  V30 13 1 10 14
M  V30 14 1 11 15
M  V30 15 1 11 14
M  V30 END BOND
M  V30 BEGIN COLLECTION
M  V30 MDLV30/STEABS ATOMS=(1 7)
M  V30 END COLLECTION
M  V30 END CTAB
M  END
>  <Structure No>
246

>  <Molecule Name>
Germacrene D

>  <PubChem CID>
12016628

>  <SMILES>
CC(C)[C@H](CC/C(\C)=C/CC1)/C=C/C1=C

>  <InChIKey>
GAIBLDCXCZKKJE-RXJOXMPGSA-N

>  <Molecular Formula>
C15H24

>  <Target Organism>
Aedes albopictus

>  <Reference DOI>
10.3390/molecules26113072

>  <Activity Label>
1

>  <Repellency>
Active

>  <IUPAC>


>  <Common name>
GERMACRENE D

$$$$
Compound 247
     RDKit          2D

 15 15  0  0  0  0  0  0  0  0999 V2000
    0.0000    0.0000    0.0000 O   0  0  0  0  0  0  0  0  0  0  0  0
   -1.3341   -0.7015    0.0000 C   0  0  0  0  0  0  0  0  0  0  0  0
   -2.6682    0.1035    0.0000 O   0  0  0  0  0  0  0  0  0  0  0  0
   -1.3686   -2.1622    0.0000 C   0  0  0  0  0  0  0  0  0  0  0  0
   -4.0023   -0.5980    0.0000 C   0  0  0  0  0  0  0  0  0  0  0  0
   -0.1035   -1.3686    0.0000 O   0  0  0  0  0  0  0  0  0  0  0  0
   -2.7027   -2.8522    0.0000 C   0  0  0  0  0  0  0  0  0  0  0  0
   -0.1035   -2.8637    0.0000 C   0  0  0  0  0  0  0  0  0  0  0  0
   -5.3365    0.2070    0.0000 C   0  0  0  0  0  0  0  0  0  0  0  0
   -2.7372   -4.3129    0.0000 C   0  0  0  0  0  0  0  0  0  0  0  0
   -0.1380   -4.3244    0.0000 C   0  0  0  0  0  0  0  0  0  0  0  0
   -6.6706   -0.4945    0.0000 O   0  0  0  0  0  0  0  0  0  0  0  0
   -1.4721   -5.0375    0.0000 C   0  0  0  0  0  0  0  0  0  0  0  0
   -8.0047    0.3105    0.0000 C   0  0  0  0  0  0  0  0  0  0  0  0
   -9.3389   -0.3910    0.0000 C   0  0  0  0  0  0  0  0  0  0  0  0
  1  2  2  0
  2  3  1  0
  2  4  1  0
  3  5  1  0
  4  6  1  0
  4  7  1  0
  4  8  1  0
  5  9  1  0
  7 10  1  0
  8 11  1  0
  9 12  1  0
 10 13  1  0
 12 14  1  0
 14 15  1  0
 11 13  1  0
M  END
>  <Structure No>
247

>  <Molecule Name>
2-Ethoxyethyl 1-hydroxycyclohexanecarboxylate

>  <PubChem CID>
245457

>  <SMILES>
CCOCCOC(C1(CCCCC1)O)=O

>  <InChIKey>
JQKXMVKRNAHXOQ-UHFFFAOYSA-N

>  <Molecular Formula>
C11H20O4

>  <Target Organism>
Aedes aegypti

>  <Reference DOI>
10.3390/toxics11100837

>  <Activity Label>
1

>  <Repellency>
Active

>  <IUPAC>
2-ethoxyethyl 1-hydroxycyclohexane-1-carboxylate

>  <Common name>
2-Ethoxyethyl 1-hydroxycyclohexanecarboxylate

$$$$
Compound 248
     RDKit          2D

 15 15  0  0  0  0  0  0  0  0999 V2000
    0.0000    0.0000    0.0000 O   0  0  0  0  0  0  0  0  0  0  0  0
   -0.0364   -1.4717    0.0000 C   0  0  0  0  0  0  0  0  0  0  0  0
   -1.3744   -2.2015    0.0000 O   0  0  0  0  0  0  0  0  0  0  0  0
    1.2284   -2.2015    0.0000 C   0  0  0  0  0  0  0  0  0  0  0  0
   -2.7123   -1.4230    0.0000 C   0  0  0  0  0  0  0  0  0  0  0  0
    2.4934   -1.4230    0.0000 C   0  0  0  0  0  0  0  0  0  0  0  0
    1.1919   -3.6732    0.0000 C   0  0  0  0  0  0  0  0  0  0  0  0
   -4.0503   -2.1528    0.0000 C   0  0  0  0  0  0  0  0  0  0  0  0
    2.4569    0.1216    0.0000 C   0  0  0  0  0  0  0  0  0  0  0  0
    3.7583   -2.1650    0.0000 C   0  0  0  0  0  0  0  0  0  0  0  0
    2.4569   -4.4152    0.0000 C   0  0  0  0  0  0  0  0  0  0  0  0
    1.1190    0.9000    0.0000 O   0  0  0  0  0  0  0  0  0  0  0  0
    3.7219    0.9000    0.0000 O   0  0  0  0  0  0  0  0  0  0  0  0
    3.7219   -3.6367    0.0000 C   0  0  0  0  0  0  0  0  0  0  0  0
    3.6854    2.4447    0.0000 C   0  0  0  0  0  0  0  0  0  0  0  0
  1  2  2  0
  2  3  1  0
  2  4  1  0
  3  5  1  0
  4  6  2  0
  4  7  1  0
  5  8  1  0
  6  9  1  0
  6 10  1  0
  7 11  2  0
  9 12  2  0
  9 13  1  0
 10 14  2  0
 13 15  1  0
 11 14  1  0
M  END
>  <Structure No>
248

>  <Molecule Name>
Methyl ethyl phthalate

>  <PubChem CID>
36656

>  <SMILES>
CCOC(c(cccc1)c1C(OC)=O)=O

>  <InChIKey>
HGERXYZHJFOFNE-UHFFFAOYSA-N

>  <Molecular Formula>
C11H12O4

>  <Target Organism>
Aedes aegypti

>  <Reference DOI>
10.3390/toxics11100837

>  <Activity Label>
1

>  <Repellency>
Active

>  <IUPAC>
2-O-ethyl 1-O-methyl benzene-1,2-dicarboxylate

>  <Common name>
Methyl ethyl phthalate

$$$$
Compound 249
     RDKit          2D

 15 15  0  0  0  0  0  0  0  0999 V2000
    0.0000    0.0000    0.0000 O   0  0  0  0  0  0  0  0  0  0  0  0
    1.2790   -0.7502    0.0000 C   0  0  0  0  0  0  0  0  0  0  0  0
    2.5581    0.0245    0.0000 O   0  0  0  0  0  0  0  0  0  0  0  0
    1.2421   -2.2383    0.0000 C   0  0  0  0  0  0  0  0  0  0  0  0
    2.5212    1.5865    0.0000 C   0  0  0  0  0  0  0  0  0  0  0  0
    2.5212   -2.9886    0.0000 C   0  0  0  0  0  0  0  0  0  0  0  0
   -0.1106   -2.9763    0.0000 C   0  0  0  0  0  0  0  0  0  0  0  0
    3.8003   -2.2014    0.0000 O   0  0  0  0  0  0  0  0  0  0  0  0
    2.4843   -4.4767    0.0000 C   0  0  0  0  0  0  0  0  0  0  0  0
   -0.1475   -4.4644    0.0000 C   0  0  0  0  0  0  0  0  0  0  0  0
    5.0794   -2.9394    0.0000 C   0  0  0  0  0  0  0  0  0  0  0  0
    1.1314   -5.2146    0.0000 C   0  0  0  0  0  0  0  0  0  0  0  0
    5.0425   -4.4275    0.0000 O   0  0  0  0  0  0  0  0  0  0  0  0
    6.3584   -2.1522    0.0000 C   0  0  0  0  0  0  0  0  0  0  0  0
    7.6375   -2.8902    0.0000 C   0  0  0  0  0  0  0  0  0  0  0  0
  1  2  2  0
  2  3  1  0
  2  4  1  0
  3  5  1  0
  4  6  2  0
  4  7  1  0
  6  8  1  0
  6  9  1  0
  7 10  2  0
  8 11  1  0
  9 12  2  0
 11 13  2  0
 11 14  1  0
 14 15  1  0
 10 12  1  0
M  END
>  <Structure No>
249

>  <Molecule Name>
Methyl 2-propanoyloxybenzoate

>  <PubChem CID>
836916

>  <SMILES>
CCC(Oc(cccc1)c1C(OC)=O)=O

>  <InChIKey>
PYBKJYXFTAFKIO-UHFFFAOYSA-N

>  <Molecular Formula>
C11H12O4

>  <Target Organism>
Aedes aegypti

>  <Reference DOI>
10.3390/toxics11100837

>  <Activity Label>
1

>  <Repellency>
Active

>  <IUPAC>
methyl 2-propanoyloxybenzoate

>  <Common name>
Methyl 2-propanoyloxybenzoate

$$$$
Compound 250
     RDKit          2D

 15 15  0  0  0  0  0  0  0  0999 V2000
    0.0000    0.0000    0.0000 O   0  0  0  0  0  0  0  0  0  0  0  0
   -0.0345   -1.4612    0.0000 C   0  0  0  0  0  0  0  0  0  0  0  0
   -1.3692   -2.1516    0.0000 O   0  0  0  0  0  0  0  0  0  0  0  0
    1.2311   -2.1516    0.0000 C   0  0  0  0  0  0  0  0  0  0  0  0
   -2.7039   -1.3577    0.0000 C   0  0  0  0  0  0  0  0  0  0  0  0
    2.4968   -1.3577    0.0000 C   0  0  0  0  0  0  0  0  0  0  0  0
   -4.0386   -2.0481    0.0000 C   0  0  0  0  0  0  0  0  0  0  0  0
    3.7625   -2.0481    0.0000 C   0  0  0  0  0  0  0  0  0  0  0  0
   -5.3734   -1.2541    0.0000 C   0  0  0  0  0  0  0  0  0  0  0  0
   -6.7081   -1.9445    0.0000 C   0  0  0  0  0  0  0  0  0  0  0  0
   -8.0428   -1.1391    0.0000 C   0  0  0  0  0  0  0  0  0  0  0  0
   -6.7426   -3.4058    0.0000 C   0  0  0  0  0  0  0  0  0  0  0  0
   -9.3775   -1.8294    0.0000 C   0  0  0  0  0  0  0  0  0  0  0  0
   -8.0773   -4.0962    0.0000 C   0  0  0  0  0  0  0  0  0  0  0  0
   -9.4121   -3.2907    0.0000 C   0  0  0  0  0  0  0  0  0  0  0  0
  1  2  2  0
  2  3  1  0
  2  4  1  0
  3  5  1  0
  4  6  1  0
  5  7  1  0
  6  8  1  0
  7  9  1  0
  9 10  1  0
 10 11  2  0
 10 12  1  0
 11 13  1  0
 12 14  2  0
 13 15  2  0
 14 15  1  0
M  END
>  <Structure No>
250

>  <Molecule Name>
3-Phenylpropyl butyrate

>  <PubChem CID>
81894

>  <SMILES>
CCCC(OCCCc1ccccc1)=O

>  <InChIKey>
IWBHCESPSIQPME-UHFFFAOYSA-N

>  <Molecular Formula>
C13H18O2

>  <Target Organism>
Aedes aegypti

>  <Reference DOI>
10.3390/toxics11100837

>  <Activity Label>
1

>  <Repellency>
Active

>  <IUPAC>
3-phenylpropyl butanoate

>  <Common name>
3-Phenylpropyl butyrate

$$$$
Compound 251
     RDKit          2D

 15 15  0  0  0  0  0  0  0  0999 V2000
    0.0000    0.0000    0.0000 O   0  0  0  0  0  0  0  0  0  0  0  0
   -0.0361    1.5283    0.0000 C   0  0  0  0  0  0  0  0  0  0  0  0
   -1.3598    2.2864    0.0000 O   0  0  0  0  0  0  0  0  0  0  0  0
    1.2154    2.2864    0.0000 C   0  0  0  0  0  0  0  0  0  0  0  0
   -2.6836    1.5644    0.0000 C   0  0  0  0  0  0  0  0  0  0  0  0
    2.4670    1.5644    0.0000 C   0  0  0  0  0  0  0  0  0  0  0  0
    1.1793    3.8148    0.0000 C   0  0  0  0  0  0  0  0  0  0  0  0
   -4.0073    2.3346    0.0000 C   0  0  0  0  0  0  0  0  0  0  0  0
    3.7185    2.3346    0.0000 C   0  0  0  0  0  0  0  0  0  0  0  0
   -5.3311    1.6125    0.0000 C   0  0  0  0  0  0  0  0  0  0  0  0
   -6.6549    2.3827    0.0000 C   0  0  0  0  0  0  0  0  0  0  0  0
   -5.3672    0.1564    0.0000 C   0  0  0  0  0  0  0  0  0  0  0  0
   -7.9786    1.6607    0.0000 C   0  0  0  0  0  0  0  0  0  0  0  0
   -6.6910   -0.5656    0.0000 C   0  0  0  0  0  0  0  0  0  0  0  0
   -8.0147    0.2045    0.0000 C   0  0  0  0  0  0  0  0  0  0  0  0
  1  2  2  0
  2  3  1  0
  2  4  1  0
  3  5  1  0
  4  6  2  0
  4  7  1  0
  5  8  1  0
  6  9  1  0
  8 10  1  0
 10 11  2  0
 10 12  1  0
 11 13  1  0
 12 14  2  0
 13 15  2  0
 14 15  1  0
M  END
>  <Structure No>
251

>  <Molecule Name>
Tiglic acid, phenethyl ester

>  <PubChem CID>
5357002

>  <SMILES>
C/C=C(\C)/C(OCCc1ccccc1)=O

>  <InChIKey>
KVMWYGAYARXPOL-QDEBKDIKSA-N

>  <Molecular Formula>
C13H16O2

>  <Target Organism>
Aedes aegypti

>  <Reference DOI>
10.3390/toxics11100837

>  <Activity Label>
1

>  <Repellency>
Active

>  <IUPAC>


>  <Common name>
Tiglic acid, phenethyl ester

$$$$
Compound 252
     RDKit          2D

 15 15  0  0  0  0  0  0  0  0999 V2000
    0.0000    0.0000    0.0000 O   0  0  0  0  0  0  0  0  0  0  0  0
    1.2928   -0.7169    0.0000 C   0  0  0  0  0  0  0  0  0  0  0  0
    1.2575   -2.2095    0.0000 C   0  0  0  0  0  0  0  0  0  0  0  0
    2.5503   -2.9264    0.0000 C   0  0  0  0  0  0  0  0  0  0  0  0
   -0.1057   -2.9147    0.0000 C   0  0  0  0  0  0  0  0  0  0  0  0
    3.8432   -2.1155    0.0000 O   0  0  0  0  0  0  0  0  0  0  0  0
    2.5151   -4.4190    0.0000 C   0  0  0  0  0  0  0  0  0  0  0  0
   -0.1410   -4.4073    0.0000 C   0  0  0  0  0  0  0  0  0  0  0  0
    5.1360   -2.8207    0.0000 C   0  0  0  0  0  0  0  0  0  0  0  0
    1.1517   -5.1242    0.0000 C   0  0  0  0  0  0  0  0  0  0  0  0
    6.4288   -2.0097    0.0000 C   0  0  0  0  0  0  0  0  0  0  0  0
    7.7216   -2.7149    0.0000 C   0  0  0  0  0  0  0  0  0  0  0  0
    9.0144   -1.9157    0.0000 C   0  0  0  0  0  0  0  0  0  0  0  0
   10.3073   -2.6209    0.0000 C   0  0  0  0  0  0  0  0  0  0  0  0
   11.6001   -1.8099    0.0000 C   0  0  0  0  0  0  0  0  0  0  0  0
  1  2  2  0
  2  3  1  0
  3  4  2  0
  3  5  1  0
  4  6  1  0
  4  7  1  0
  5  8  2  0
  6  9  1  0
  7 10  2  0
  9 11  1  0
 11 12  1  0
 12 13  1  0
 13 14  1  0
 14 15  1  0
  8 10  1  0
M  END
>  <Structure No>
252

>  <Molecule Name>
2-(Hexyloxy)benzaldehyde

>  <PubChem CID>
138951

>  <SMILES>
CCCCCCOc1c(C=O)cccc1

>  <InChIKey>
IFOIDROUJIGQAV-UHFFFAOYSA-N

>  <Molecular Formula>
C13H18O2

>  <Target Organism>
Aedes aegypti

>  <Reference DOI>
10.3390/toxics11100837

>  <Activity Label>
1

>  <Repellency>
Active

>  <IUPAC>
2-hexoxybenzaldehyde

>  <Common name>
2-(Hexyloxy)benzaldehyde

$$$$
Compound 253
     RDKit          2D

 15 15  0  0  0  0  0  0  0  0999 V2000
    0.0000    0.0000    0.0000 O   0  0  0  0  0  0  0  0  0  0  0  0
    1.2609    0.7638    0.0000 C   0  0  0  0  0  0  0  0  0  0  0  0
   -1.3336    0.7638    0.0000 C   0  0  0  0  0  0  0  0  0  0  0  0
    2.5218    0.0242    0.0000 C   0  0  0  0  0  0  0  0  0  0  0  0
   -2.6673    0.0242    0.0000 C   0  0  0  0  0  0  0  0  0  0  0  0
    2.4854   -1.4427    0.0000 C   0  0  0  0  0  0  0  0  0  0  0  0
    3.7827    0.8002    0.0000 C   0  0  0  0  0  0  0  0  0  0  0  0
   -4.0010    0.8002    0.0000 O   0  0  0  0  0  0  0  0  0  0  0  0
    3.7464   -2.1823    0.0000 C   0  0  0  0  0  0  0  0  0  0  0  0
    5.0437    0.0727    0.0000 C   0  0  0  0  0  0  0  0  0  0  0  0
   -5.3347    0.0606    0.0000 C   0  0  0  0  0  0  0  0  0  0  0  0
    5.0073   -1.4064    0.0000 C   0  0  0  0  0  0  0  0  0  0  0  0
   -6.6683    0.8365    0.0000 C   0  0  0  0  0  0  0  0  0  0  0  0
   -8.0020    0.0969    0.0000 C   0  0  0  0  0  0  0  0  0  0  0  0
   -6.7047    2.3763    0.0000 C   0  0  0  0  0  0  0  0  0  0  0  0
  1  2  1  0
  1  3  1  0
  2  4  1  0
  3  5  1  0
  4  6  2  0
  4  7  1  0
  5  8  1  0
  6  9  1  0
  7 10  2  0
  8 11  1  0
  9 12  2  0
 11 13  1  0
 13 14  2  0
 13 15  1  0
 10 12  1  0
M  END
>  <Structure No>
253

>  <Molecule Name>
Methallyl beta-benzyloxyethyl ether

>  <PubChem CID>
Not found

>  <SMILES>
CC(COCCOCc1ccccc1)=C

>  <InChIKey>
NRPRRPNHAVVDMI-UHFFFAOYSA-N

>  <Molecular Formula>
C13H18O2

>  <Target Organism>
Aedes aegypti

>  <Reference DOI>
10.3390/toxics11100837

>  <Activity Label>
1

>  <Repellency>
Active

>  <IUPAC>


>  <Common name>
Methallyl beta-benzyloxyethyl ether

$$$$
Compound 254
     RDKit          2D

  0  0  0  0  0  0  0  0  0  0999 V3000
M  V30 BEGIN CTAB
M  V30 COUNTS 15 15 0 0 0
M  V30 BEGIN ATOM
M  V30 1 O 0.000000 0.000000 0.000000 0
M  V30 2 C -0.036700 1.555100 0.000000 0
M  V30 3 C -1.383700 2.326600 0.000000 0
M  V30 4 C 1.236700 2.326600 0.000000 0
M  V30 5 C -1.420400 3.881800 0.000000 0
M  V30 6 C -2.730700 1.591900 0.000000 0
M  V30 7 C 2.510300 1.591900 0.000000 0
M  V30 8 C 3.783800 2.375600 0.000000 0
M  V30 9 C 2.473500 0.110200 0.000000 0
M  V30 10 C 5.057300 1.628600 0.000000 0
M  V30 11 C 3.747100 -0.624500 0.000000 0
M  V30 12 C 5.020600 0.146900 0.000000 0
M  V30 13 C 6.294100 -0.600000 0.000000 0
M  V30 14 C 6.257400 -2.081700 0.000000 0
M  V30 15 C 7.567700 0.171400 0.000000 0
M  V30 END ATOM
M  V30 BEGIN BOND
M  V30 1 1 2 1 CFG=3
M  V30 2 1 2 3
M  V30 3 1 2 4
M  V30 4 1 3 5
M  V30 5 1 3 6
M  V30 6 1 4 7
M  V30 7 2 7 8
M  V30 8 1 7 9
M  V30 9 1 8 10
M  V30 10 2 9 11
M  V30 11 2 10 12
M  V30 12 1 12 13
M  V30 13 1 13 14
M  V30 14 1 13 15
M  V30 15 1 11 12
M  V30 END BOND
M  V30 BEGIN COLLECTION
M  V30 MDLV30/STERAC1 ATOMS=(1 2)
M  V30 END COLLECTION
M  V30 END CTAB
M  END
>  <Structure No>
254

>  <Molecule Name>
3-Methyl-1-(4-propan-2-ylphenyl)butan-2-ol

>  <PubChem CID>
62605933

>  <SMILES>
CC(C)C(Cc1ccc(C(C)C)cc1)O

>  <InChIKey>
GBFRXPFQXAHYBY-AWEZNQCLSA-N

>  <Molecular Formula>
C14H22O

>  <Target Organism>
Aedes aegypti

>  <Reference DOI>
10.3390/toxics11100837

>  <Activity Label>
1

>  <Repellency>
Active

>  <IUPAC>
3-methyl-1-(4-propan-2-ylphenyl)butan-2-ol

>  <Common name>
3-Methyl-1-(4-propan-2-ylphenyl)butan-2-ol

$$$$
Compound 255
     RDKit          2D

 15 15  0  0  0  0  0  0  0  0999 V2000
    0.0000    0.0000    0.0000 O   0  0  0  0  0  0  0  0  0  0  0  0
   -0.0362   -1.4629    0.0000 C   0  0  0  0  0  0  0  0  0  0  0  0
    1.2211   -2.1883    0.0000 O   0  0  0  0  0  0  0  0  0  0  0  0
   -1.3661   -2.1883    0.0000 C   0  0  0  0  0  0  0  0  0  0  0  0
    2.4784   -1.4145    0.0000 C   0  0  0  0  0  0  0  0  0  0  0  0
   -2.6960   -1.4145    0.0000 C   0  0  0  0  0  0  0  0  0  0  0  0
   -1.4024   -3.6512    0.0000 C   0  0  0  0  0  0  0  0  0  0  0  0
    3.7358   -2.1399    0.0000 C   0  0  0  0  0  0  0  0  0  0  0  0
   -4.0260   -2.1399    0.0000 O   0  0  0  0  0  0  0  0  0  0  0  0
   -2.7323    0.1209    0.0000 C   0  0  0  0  0  0  0  0  0  0  0  0
   -1.4749    0.8825    0.0000 C   0  0  0  0  0  0  0  0  0  0  0  0
   -4.0622    0.8825    0.0000 C   0  0  0  0  0  0  0  0  0  0  0  0
   -1.5112    2.4180    0.0000 C   0  0  0  0  0  0  0  0  0  0  0  0
   -4.0985    2.4180    0.0000 C   0  0  0  0  0  0  0  0  0  0  0  0
   -2.8411    3.1917    0.0000 C   0  0  0  0  0  0  0  0  0  0  0  0
  1  2  2  0
  2  3  1  0
  2  4  1  0
  3  5  1  0
  4  6  1  0
  4  7  1  0
  5  8  1  0
  6  9  1  0
  6 10  1  0
 10 11  2  0
 10 12  1  0
 11 13  1  0
 12 14  2  0
 13 15  2  0
 14 15  1  0
M  END
>  <Structure No>
255

>  <Molecule Name>
Ethyl 3-hydroxy-2-methyl-3-phenylpropanoate

>  <PubChem CID>
249268

>  <SMILES>
CCOC(C(C)C(c1ccccc1)O)=O

>  <InChIKey>
DBYGIIOOKKCUKJ-UHFFFAOYSA-N

>  <Molecular Formula>
C12H16O3

>  <Target Organism>
Aedes aegypti

>  <Reference DOI>
10.3390/toxics11100837

>  <Activity Label>
1

>  <Repellency>
Active

>  <IUPAC>
ethyl 3-hydroxy-2-methyl-3-phenylpropanoate

>  <Common name>
Ethyl 3-hydroxy-2-methyl-3-phenylpropanoate

$$$$
Compound 256
     RDKit          2D

  0  0  0  0  0  0  0  0  0  0999 V3000
M  V30 BEGIN CTAB
M  V30 COUNTS 15 15 0 0 0
M  V30 BEGIN ATOM
M  V30 1 O 0.000000 0.000000 0.000000 0
M  V30 2 C -0.034700 -1.470600 0.000000 0
M  V30 3 O -1.378000 -2.211700 0.000000 0
M  V30 4 C 1.239000 -2.211700 0.000000 0
M  V30 5 C -2.721200 -1.412700 0.000000 0
M  V30 6 O 2.512800 -1.412700 0.000000 0
M  V30 7 C 1.204300 -3.682300 0.000000 0
M  V30 8 C -4.064500 -2.130600 0.000000 0
M  V30 9 C -0.138900 -4.377100 0.000000 0
M  V30 10 C 2.478000 -4.388700 0.000000 0
M  V30 11 C -5.407700 -1.331600 0.000000 0
M  V30 12 C -0.173600 -5.847800 0.000000 0
M  V30 13 C 2.443300 -5.859400 0.000000 0
M  V30 14 C -6.751000 -2.038000 0.000000 0
M  V30 15 C 1.100000 -6.554100 0.000000 0
M  V30 END ATOM
M  V30 BEGIN BOND
M  V30 1 2 1 2
M  V30 2 1 2 3
M  V30 3 1 2 4
M  V30 4 1 3 5
M  V30 5 1 4 6 CFG=3
M  V30 6 1 4 7
M  V30 7 1 5 8
M  V30 8 2 7 9
M  V30 9 1 7 10
M  V30 10 1 8 11
M  V30 11 1 9 12
M  V30 12 2 10 13
M  V30 13 1 11 14
M  V30 14 2 12 15
M  V30 15 1 13 15
M  V30 END BOND
M  V30 BEGIN COLLECTION
M  V30 MDLV30/STERAC1 ATOMS=(1 4)
M  V30 END COLLECTION
M  V30 END CTAB
M  END
>  <Structure No>
256

>  <Molecule Name>
Butyl mandelate

>  <PubChem CID>
85668

>  <SMILES>
CCCCOC(C(c1ccccc1)O)=O

>  <InChIKey>
QLVXFMSPNHAPMO-LLVKDONJSA-N

>  <Molecular Formula>
C12H16O3

>  <Target Organism>
Aedes aegypti

>  <Reference DOI>
10.3390/toxics11100837

>  <Activity Label>
1

>  <Repellency>
Active

>  <IUPAC>
butyl 2-hydroxy-2-phenylacetate

>  <Common name>
Butyl mandelate

$$$$
Compound 257
     RDKit          2D

  0  0  0  0  0  0  0  0  0  0999 V3000
M  V30 BEGIN CTAB
M  V30 COUNTS 15 15 0 0 0
M  V30 BEGIN ATOM
M  V30 1 O 0.000000 0.000000 0.000000 0
M  V30 2 C -0.035800 1.517700 0.000000 0
M  V30 3 O -1.350400 2.282600 0.000000 0
M  V30 4 C 1.207000 2.282600 0.000000 0
M  V30 5 C -2.665000 1.553600 0.000000 0
M  V30 6 O 2.449900 1.553600 0.000000 0
M  V30 7 C 1.171100 3.800300 0.000000 0
M  V30 8 C -3.979600 2.318400 0.000000 0
M  V30 9 C 2.414000 4.565200 0.000000 0
M  V30 10 C -0.143400 4.565200 0.000000 0
M  V30 11 C -4.015400 3.836200 0.000000 0
M  V30 12 C -5.294200 1.589400 0.000000 0
M  V30 13 C 2.378200 6.082900 0.000000 0
M  V30 14 C -0.179200 6.082900 0.000000 0
M  V30 15 C 1.063600 6.847800 0.000000 0
M  V30 END ATOM
M  V30 BEGIN BOND
M  V30 1 2 1 2
M  V30 2 1 2 3
M  V30 3 1 2 4
M  V30 4 1 3 5
M  V30 5 1 4 6 CFG=1
M  V30 6 1 4 7
M  V30 7 1 5 8
M  V30 8 2 7 9
M  V30 9 1 7 10
M  V30 10 1 8 11
M  V30 11 1 8 12
M  V30 12 1 9 13
M  V30 13 2 10 14
M  V30 14 2 13 15
M  V30 15 1 14 15
M  V30 END BOND
M  V30 BEGIN COLLECTION
M  V30 MDLV30/STERAC1 ATOMS=(1 4)
M  V30 END COLLECTION
M  V30 END CTAB
M  END
>  <Structure No>
257

>  <Molecule Name>
Benzeneacetic acid, alpha-hydroxy-, 2-methylpropyl ester

>  <PubChem CID>
224763

>  <SMILES>
CC(C)COC(C(c1ccccc1)O)=O

>  <InChIKey>
UXPTXOYCOCXVQX-LLVKDONJSA-N

>  <Molecular Formula>
C12H16O3

>  <Target Organism>
Aedes aegypti

>  <Reference DOI>
10.3390/toxics11100837

>  <Activity Label>
1

>  <Repellency>
Active

>  <IUPAC>
2-methylpropyl 2-hydroxy-2-phenylacetate

>  <Common name>
Benzeneacetic acid, alpha-hydroxy-, 2-methylpropyl ester

$$$$
Compound 258
     RDKit          2D

 15 15  0  0  0  0  0  0  0  0999 V2000
    0.0000    0.0000    0.0000 O   0  0  0  0  0  0  0  0  0  0  0  0
   -0.0364    1.5413    0.0000 C   0  0  0  0  0  0  0  0  0  0  0  0
    1.2258    2.3181    0.0000 O   0  0  0  0  0  0  0  0  0  0  0  0
   -1.3714    2.3181    0.0000 C   0  0  0  0  0  0  0  0  0  0  0  0
    2.4880    1.5899    0.0000 C   0  0  0  0  0  0  0  0  0  0  0  0
   -2.7065    1.5899    0.0000 C   0  0  0  0  0  0  0  0  0  0  0  0
    3.7503    2.3667    0.0000 C   0  0  0  0  0  0  0  0  0  0  0  0
   -1.4442    0.8495    0.0000 O   0  0  0  0  0  0  0  0  0  0  0  0
   -4.0415    2.3667    0.0000 C   0  0  0  0  0  0  0  0  0  0  0  0
   -2.7429    0.1213    0.0000 C   0  0  0  0  0  0  0  0  0  0  0  0
    5.0125    1.6384    0.0000 C   0  0  0  0  0  0  0  0  0  0  0  0
   -5.3766    1.6384    0.0000 C   0  0  0  0  0  0  0  0  0  0  0  0
   -4.0780   -0.6068    0.0000 C   0  0  0  0  0  0  0  0  0  0  0  0
    6.2747    2.4152    0.0000 C   0  0  0  0  0  0  0  0  0  0  0  0
   -5.4130    0.1699    0.0000 C   0  0  0  0  0  0  0  0  0  0  0  0
  1  2  2  0
  2  3  1  0
  2  4  1  0
  3  5  1  0
  4  6  1  0
  5  7  1  0
  6  8  1  0
  6  9  1  0
  6 10  1  0
  7 11  1  0
  9 12  1  0
 10 13  1  0
 11 14  1  0
 12 15  1  0
 13 15  1  0
M  END
>  <Structure No>
258

>  <Molecule Name>
Cyclohexaneacetic acid, 1-hydroxy-, butyl ester

>  <PubChem CID>
245376

>  <SMILES>
CCCCOC(CC1(CCCCC1)O)=O

>  <InChIKey>
RZHRDWRQAUGJTB-UHFFFAOYSA-N

>  <Molecular Formula>
C12H22O3

>  <Target Organism>
Aedes aegypti

>  <Reference DOI>
10.3390/toxics11100837

>  <Activity Label>
1

>  <Repellency>
Active

>  <IUPAC>
butyl 2-(1-hydroxycyclohexyl)acetate

>  <Common name>
Cyclohexaneacetic acid, 1-hydroxy-, butyl ester

$$$$
Compound 259
     RDKit          2D

  0  0  0  0  0  0  0  0  0  0999 V3000
M  V30 BEGIN CTAB
M  V30 COUNTS 15 15 0 0 0
M  V30 BEGIN ATOM
M  V30 1 O 0.000000 0.000000 0.000000 0
M  V30 2 C -0.034700 -1.472600 0.000000 0
M  V30 3 O -1.379900 -2.214800 0.000000 0
M  V30 4 C 1.240700 -2.214800 0.000000 0
M  V30 5 C -2.725000 -1.414700 0.000000 0
M  V30 6 C 2.516300 -1.414700 0.000000 0
M  V30 7 C -4.070100 -2.122000 0.000000 0
M  V30 8 O 1.716200 -0.069500 0.000000 0
M  V30 9 C 3.791800 -2.122000 0.000000 0
M  V30 10 C 3.223600 -0.069500 0.000000 0
M  V30 11 C 3.757000 -3.594700 0.000000 0
M  V30 12 C 5.067400 -1.321900 0.000000 0
M  V30 13 C 5.032600 -4.302100 0.000000 0
M  V30 14 C 6.342900 -2.017600 0.000000 0
M  V30 15 C 6.308200 -3.501900 0.000000 0
M  V30 END ATOM
M  V30 BEGIN BOND
M  V30 1 2 1 2
M  V30 2 1 2 3
M  V30 3 1 2 4
M  V30 4 1 3 5
M  V30 5 1 4 6
M  V30 6 1 5 7
M  V30 7 1 6 8
M  V30 8 1 6 9
M  V30 9 1 6 10 CFG=1
M  V30 10 2 9 11
M  V30 11 1 9 12
M  V30 12 1 11 13
M  V30 13 2 12 14
M  V30 14 2 13 15
M  V30 15 1 14 15
M  V30 END BOND
M  V30 BEGIN COLLECTION
M  V30 MDLV30/STERAC1 ATOMS=(1 6)
M  V30 END COLLECTION
M  V30 END CTAB
M  END
>  <Structure No>
259

>  <Molecule Name>
Ethyl 3-hydroxy-3-phenylbutanoate

>  <PubChem CID>
220801

>  <SMILES>
CCOC(CC(C)(c1ccccc1)O)=O

>  <InChIKey>
RBHSZNSXPDPHSH-LBPRGKRZSA-N

>  <Molecular Formula>
C12H16O3

>  <Target Organism>
Aedes aegypti

>  <Reference DOI>
10.3390/toxics11100837

>  <Activity Label>
1

>  <Repellency>
Active

>  <IUPAC>
ethyl 3-hydroxy-3-phenylbutanoate

>  <Common name>
Ethyl 3-hydroxy-3-phenylbutanoate

$$$$
Compound 260
     RDKit          2D

 15 15  0  0  0  0  0  0  0  0999 V2000
    0.0000    0.0000    0.0000 O   0  0  0  0  0  0  0  0  0  0  0  0
   -1.3059    0.7479    0.0000 C   0  0  0  0  0  0  0  0  0  0  0  0
   -1.3415    2.2556    0.0000 C   0  0  0  0  0  0  0  0  0  0  0  0
   -2.6118    0.0356    0.0000 C   0  0  0  0  0  0  0  0  0  0  0  0
   -2.6474    3.0036    0.0000 C   0  0  0  0  0  0  0  0  0  0  0  0
   -3.9177    0.7954    0.0000 C   0  0  0  0  0  0  0  0  0  0  0  0
   -3.9534    2.2913    0.0000 C   0  0  0  0  0  0  0  0  0  0  0  0
   -2.6830    4.5113    0.0000 C   0  0  0  0  0  0  0  0  0  0  0  0
   -5.2237    0.0712    0.0000 C   0  0  0  0  0  0  0  0  0  0  0  0
   -5.2593    3.0392    0.0000 C   0  0  0  0  0  0  0  0  0  0  0  0
   -6.5296    0.8191    0.0000 C   0  0  0  0  0  0  0  0  0  0  0  0
   -5.2949    4.5470    0.0000 O   0  0  0  0  0  0  0  0  0  0  0  0
   -6.5652    2.3269    0.0000 O   0  0  0  0  0  0  0  0  0  0  0  0
   -7.8711    3.0748    0.0000 C   0  0  0  0  0  0  0  0  0  0  0  0
   -9.1771    2.3625    0.0000 C   0  0  0  0  0  0  0  0  0  0  0  0
  1  2  2  0
  2  3  1  0
  2  4  1  0
  3  5  2  0
  4  6  1  0
  5  7  1  0
  5  8  1  0
  6  9  1  0
  7 10  1  0
  9 11  1  0
 10 12  2  0
 10 13  1  0
 13 14  1  0
 14 15  1  0
  6  7  1  0
M  END
>  <Structure No>
260

>  <Molecule Name>
Ethyl 6-ethyl-2-methyl-4-oxocyclohex-2-ene-1-carboxylate

>  <PubChem CID>
221293

>  <SMILES>
CCC(C1)C(C(OCC)=O)C(C)=CC1=O

>  <InChIKey>
RWKYZCXJMNVELJ-UHFFFAOYSA-N

>  <Molecular Formula>
C12H18O3

>  <Target Organism>
Aedes aegypti

>  <Reference DOI>
10.3390/toxics11100837

>  <Activity Label>
1

>  <Repellency>
Active

>  <IUPAC>
ethyl 6-ethyl-2-methyl-4-oxocyclohex-2-ene-1-carboxylate

>  <Common name>
Ethyl 6-ethyl-2-methyl-4-oxocyclohex-2-ene-1-carboxylate

$$$$
Compound 261
     RDKit          2D

 15 15  0  0  0  0  0  0  0  0999 V2000
    0.0000    0.0000    0.0000 O   0  0  0  0  0  0  0  0  0  0  0  0
    1.2747   -0.7477    0.0000 C   0  0  0  0  0  0  0  0  0  0  0  0
    2.5495    0.0245    0.0000 N   0  0  0  0  0  0  0  0  0  0  0  0
    1.2380   -2.2308    0.0000 C   0  0  0  0  0  0  0  0  0  0  0  0
    2.5127    1.5812    0.0000 C   0  0  0  0  0  0  0  0  0  0  0  0
    3.8243   -0.7109    0.0000 C   0  0  0  0  0  0  0  0  0  0  0  0
   -0.1103   -2.9785    0.0000 O   0  0  0  0  0  0  0  0  0  0  0  0
    3.7875    2.3657    0.0000 C   0  0  0  0  0  0  0  0  0  0  0  0
    5.0991    0.0612    0.0000 C   0  0  0  0  0  0  0  0  0  0  0  0
   -0.1470   -4.4617    0.0000 C   0  0  0  0  0  0  0  0  0  0  0  0
   -1.4954   -5.2094    0.0000 C   0  0  0  0  0  0  0  0  0  0  0  0
    1.1276   -5.2094    0.0000 C   0  0  0  0  0  0  0  0  0  0  0  0
   -1.5321   -6.6926    0.0000 C   0  0  0  0  0  0  0  0  0  0  0  0
    1.0909   -6.6926    0.0000 C   0  0  0  0  0  0  0  0  0  0  0  0
   -0.2574   -7.4403    0.0000 C   0  0  0  0  0  0  0  0  0  0  0  0
  1  2  2  0
  2  3  1  0
  2  4  1  0
  3  5  1  0
  3  6  1  0
  4  7  1  0
  5  8  1  0
  6  9  1  0
  7 10  1  0
 10 11  1  0
 10 12  1  0
 11 13  1  0
 12 14  1  0
 13 15  1  0
 14 15  1  0
M  END
>  <Structure No>
261

>  <Molecule Name>
2-(Cyclohexyloxy)-n,n-diethylacetamide

>  <PubChem CID>
245381

>  <SMILES>
CCN(CC)C(COC1CCCCC1)=O

>  <InChIKey>
IELDFWAVSPKOCV-UHFFFAOYSA-N

>  <Molecular Formula>
C12H23NO2

>  <Target Organism>
Aedes aegypti

>  <Reference DOI>
10.1371/annotation/1dc83f26-8045-4b63-8a86-24c7b71a7f79

>  <Activity Label>
1

>  <Repellency>
Active

>  <IUPAC>
2-cyclohexyloxy-N,N-diethylacetamide

>  <Common name>
2-(Cyclohexyloxy)-n,n-diethylacetamide

$$$$
Compound 262
     RDKit          2D

 15 15  0  0  0  0  0  0  0  0999 V2000
    0.0000    0.0000    0.0000 O   0  0  0  0  0  0  0  0  0  0  0  0
    0.2792   -1.4544    0.0000 C   0  0  0  0  0  0  0  0  0  0  0  0
    1.6405   -2.0245    0.0000 N   0  0  0  0  0  0  0  0  0  0  0  0
   -0.7795   -2.5597    0.0000 C   0  0  0  0  0  0  0  0  0  0  0  0
    1.4544   -3.5022    0.0000 C   0  0  0  0  0  0  0  0  0  0  0  0
    2.9321   -1.2100    0.0000 C   0  0  0  0  0  0  0  0  0  0  0  0
   -0.0698   -3.8513    0.0000 C   0  0  0  0  0  0  0  0  0  0  0  0
    2.5597   -4.4912    0.0000 O   0  0  0  0  0  0  0  0  0  0  0  0
    4.2236   -1.9198    0.0000 C   0  0  0  0  0  0  0  0  0  0  0  0
    5.5151   -1.1053    0.0000 C   0  0  0  0  0  0  0  0  0  0  0  0
    6.8067   -1.8151    0.0000 C   0  0  0  0  0  0  0  0  0  0  0  0
    8.0982   -1.0006    0.0000 C   0  0  0  0  0  0  0  0  0  0  0  0
    9.3897   -1.7104    0.0000 C   0  0  0  0  0  0  0  0  0  0  0  0
   10.6813   -0.8959    0.0000 C   0  0  0  0  0  0  0  0  0  0  0  0
   11.9728   -1.6056    0.0000 C   0  0  0  0  0  0  0  0  0  0  0  0
  1  2  2  0
  2  3  1  0
  2  4  1  0
  3  5  1  0
  3  6  1  0
  4  7  1  0
  5  8  2  0
  6  9  1  0
  9 10  1  0
 10 11  1  0
 11 12  1  0
 12 13  1  0
 13 14  1  0
 14 15  1  0
  5  7  1  0
M  END
>  <Structure No>
262

>  <Molecule Name>
1-Octylpyrrolidine-2,5-dione

>  <PubChem CID>
256601

>  <SMILES>
CCCCCCCCN(C(CC1)=O)C1=O

>  <InChIKey>
IOPYEPCKCIGSSY-UHFFFAOYSA-N

>  <Molecular Formula>
C12H21NO2

>  <Target Organism>
Aedes aegypti

>  <Reference DOI>
10.3390/toxics11100837

>  <Activity Label>
1

>  <Repellency>
Active

>  <IUPAC>
1-octylpyrrolidine-2,5-dione

>  <Common name>
1-Octylpyrrolidine-2,5-dione

$$$$
Compound 263
     RDKit          2D

 15 15  0  0  0  0  0  0  0  0999 V2000
    0.0000    0.0000    0.0000 O   0  0  0  0  0  0  0  0  0  0  0  0
   -0.0361    1.5314    0.0000 C   0  0  0  0  0  0  0  0  0  0  0  0
    1.2178    2.3031    0.0000 N   0  0  0  0  0  0  0  0  0  0  0  0
   -1.3625    2.3031    0.0000 C   0  0  0  0  0  0  0  0  0  0  0  0
    1.1817    3.8345    0.0000 C   0  0  0  0  0  0  0  0  0  0  0  0
    2.4719    1.5796    0.0000 C   0  0  0  0  0  0  0  0  0  0  0  0
   -2.6889    1.5796    0.0000 C   0  0  0  0  0  0  0  0  0  0  0  0
    2.4357    4.6062    0.0000 C   0  0  0  0  0  0  0  0  0  0  0  0
   -0.1446    4.6062    0.0000 C   0  0  0  0  0  0  0  0  0  0  0  0
    3.7260    2.3513    0.0000 C   0  0  0  0  0  0  0  0  0  0  0  0
    2.3995    6.1376    0.0000 C   0  0  0  0  0  0  0  0  0  0  0  0
   -0.1808    6.1376    0.0000 C   0  0  0  0  0  0  0  0  0  0  0  0
    4.9800    1.6278    0.0000 C   0  0  0  0  0  0  0  0  0  0  0  0
    1.0731    6.9093    0.0000 C   0  0  0  0  0  0  0  0  0  0  0  0
    6.2341    2.3995    0.0000 C   0  0  0  0  0  0  0  0  0  0  0  0
  1  2  2  0
  2  3  1  0
  2  4  1  0
  3  5  1  0
  3  6  1  0
  4  7  1  0
  5  8  2  0
  5  9  1  0
  6 10  1  0
  8 11  1  0
  9 12  2  0
 10 13  1  0
 11 14  2  0
 13 15  1  0
 12 14  1  0
M  END
>  <Structure No>
263

>  <Molecule Name>
Propionanilide, N-butyl-

>  <PubChem CID>
94892

>  <SMILES>
CCCCN(C(CC)=O)c1ccccc1

>  <InChIKey>
NVMNYOQXNWCYTG-UHFFFAOYSA-N

>  <Molecular Formula>
C13H19NO

>  <Target Organism>
Aedes aegypti

>  <Reference DOI>
10.3390/toxics11100837

>  <Activity Label>
1

>  <Repellency>
Active

>  <IUPAC>
N-butyl-N-phenylpropanamide

>  <Common name>
Propionanilide, N-butyl-

$$$$
Compound 264
     RDKit          2D

 15 15  0  0  0  0  0  0  0  0999 V2000
    0.0000    0.0000    0.0000 O   0  0  0  0  0  0  0  0  0  0  0  0
    1.2749    0.7723    0.0000 C   0  0  0  0  0  0  0  0  0  0  0  0
    2.5498    0.0245    0.0000 N   0  0  0  0  0  0  0  0  0  0  0  0
    1.2381    2.3291    0.0000 C   0  0  0  0  0  0  0  0  0  0  0  0
    2.5130   -1.4588    0.0000 C   0  0  0  0  0  0  0  0  0  0  0  0
    3.8247    0.7968    0.0000 C   0  0  0  0  0  0  0  0  0  0  0  0
    1.1645   -2.1943    0.0000 C   0  0  0  0  0  0  0  0  0  0  0  0
    3.7879   -2.2065    0.0000 C   0  0  0  0  0  0  0  0  0  0  0  0
    5.0996    0.0490    0.0000 C   0  0  0  0  0  0  0  0  0  0  0  0
    1.1278   -3.6776    0.0000 C   0  0  0  0  0  0  0  0  0  0  0  0
    3.7512   -3.6899    0.0000 C   0  0  0  0  0  0  0  0  0  0  0  0
    6.3745    0.8213    0.0000 C   0  0  0  0  0  0  0  0  0  0  0  0
    2.4027   -4.4254    0.0000 C   0  0  0  0  0  0  0  0  0  0  0  0
    7.6495    0.0735    0.0000 C   0  0  0  0  0  0  0  0  0  0  0  0
    6.3378    2.3782    0.0000 C   0  0  0  0  0  0  0  0  0  0  0  0
  1  2  2  0
  2  3  1  0
  2  4  1  0
  3  5  1  0
  3  6  1  0
  5  7  2  0
  5  8  1  0
  6  9  1  0
  7 10  1  0
  8 11  2  0
  9 12  1  0
 10 13  2  0
 12 14  1  0
 12 15  1  0
 11 13  1  0
M  END
>  <Structure No>
264

>  <Molecule Name>
Acetanilide, N-isopentyl-

>  <PubChem CID>
221837

>  <SMILES>
CC(C)CCN(C(C)=O)c1ccccc1

>  <InChIKey>
JFEKSCRQNGEGBL-UHFFFAOYSA-N

>  <Molecular Formula>
C13H19NO

>  <Target Organism>
Aedes aegypti

>  <Reference DOI>
10.3390/toxics11100837

>  <Activity Label>
1

>  <Repellency>
Active

>  <IUPAC>
N-(3-methylbutyl)-N-phenylacetamide

>  <Common name>
Acetanilide, N-isopentyl-

$$$$
Compound 265
     RDKit          2D

 15 15  0  0  0  0  0  0  0  0999 V2000
    0.0000    0.0000    0.0000 O   0  0  0  0  0  0  0  0  0  0  0  0
    1.2779    0.7741    0.0000 C   0  0  0  0  0  0  0  0  0  0  0  0
    2.5559    0.0245    0.0000 N   0  0  0  0  0  0  0  0  0  0  0  0
    1.2411    2.3347    0.0000 C   0  0  0  0  0  0  0  0  0  0  0  0
    2.5191   -1.4623    0.0000 C   0  0  0  0  0  0  0  0  0  0  0  0
    3.8339    0.8110    0.0000 C   0  0  0  0  0  0  0  0  0  0  0  0
    1.1673   -2.1996    0.0000 C   0  0  0  0  0  0  0  0  0  0  0  0
    3.7970   -2.2118    0.0000 C   0  0  0  0  0  0  0  0  0  0  0  0
    5.1119    0.0614    0.0000 C   0  0  0  0  0  0  0  0  0  0  0  0
    1.1305   -3.6864    0.0000 C   0  0  0  0  0  0  0  0  0  0  0  0
    3.7602   -3.6987    0.0000 C   0  0  0  0  0  0  0  0  0  0  0  0
    6.3899    0.8356    0.0000 C   0  0  0  0  0  0  0  0  0  0  0  0
    2.4085   -4.4360    0.0000 C   0  0  0  0  0  0  0  0  0  0  0  0
    7.6678    0.0860    0.0000 C   0  0  0  0  0  0  0  0  0  0  0  0
    8.9458    0.8724    0.0000 C   0  0  0  0  0  0  0  0  0  0  0  0
  1  2  2  0
  2  3  1  0
  2  4  1  0
  3  5  1  0
  3  6  1  0
  5  7  2  0
  5  8  1  0
  6  9  1  0
  7 10  1  0
  8 11  2  0
  9 12  1  0
 10 13  2  0
 12 14  1  0
 14 15  1  0
 11 13  1  0
M  END
>  <Structure No>
265

>  <Molecule Name>
N-n-Amylacetanilide

>  <PubChem CID>
347873

>  <SMILES>
CCCCCN(C(C)=O)c1ccccc1

>  <InChIKey>
WNLWRGJQSVCHRK-UHFFFAOYSA-N

>  <Molecular Formula>
C13H19NO

>  <Target Organism>
Aedes aegypti

>  <Reference DOI>
10.3390/toxics11100837

>  <Activity Label>
1

>  <Repellency>
Active

>  <IUPAC>
N-pentyl-N-phenylacetamide

>  <Common name>
N-n-Amylacetanilide

$$$$
Compound 266
     RDKit          2D

  0  0  0  0  0  0  0  0  0  0999 V3000
M  V30 BEGIN CTAB
M  V30 COUNTS 15 15 0 0 0
M  V30 BEGIN ATOM
M  V30 1 O 0.000000 0.000000 0.000000 0
M  V30 2 C 1.262400 0.764700 0.000000 0
M  V30 3 N 1.226000 2.306300 0.000000 0
M  V30 4 C 2.524800 0.024200 0.000000 0
M  V30 5 C -0.109200 3.083200 0.000000 0
M  V30 6 C 2.488400 3.083200 0.000000 0
M  V30 7 C 2.488400 -1.444500 0.000000 0
M  V30 8 C -0.145600 4.624900 0.000000 0
M  V30 9 C 2.452000 4.624900 0.000000 0
M  V30 10 C 3.750900 -2.185000 0.000000 0
M  V30 11 C 1.116700 5.401800 0.000000 0
M  V30 12 C -1.480900 5.401800 0.000000 0
M  V30 13 C 3.714500 -3.653800 0.000000 0
M  V30 14 C 4.976900 -4.394200 0.000000 0
M  V30 15 C 4.940500 -5.863100 0.000000 0
M  V30 END ATOM
M  V30 BEGIN BOND
M  V30 1 2 1 2
M  V30 2 1 2 3
M  V30 3 1 2 4
M  V30 4 1 3 5
M  V30 5 1 3 6
M  V30 6 1 4 7
M  V30 7 1 5 8
M  V30 8 1 6 9
M  V30 9 1 7 10
M  V30 10 1 8 11
M  V30 11 1 8 12 CFG=1
M  V30 12 1 10 13
M  V30 13 1 13 14
M  V30 14 1 14 15
M  V30 15 1 9 11
M  V30 END BOND
M  V30 BEGIN COLLECTION
M  V30 MDLV30/STERAC1 ATOMS=(1 8)
M  V30 END COLLECTION
M  V30 END CTAB
M  END
>  <Structure No>
266

>  <Molecule Name>
1-(3-Methylpiperidin-1-yl)heptan-1-one

>  <PubChem CID>
303108

>  <SMILES>
CCCCCCC(N1CC(C)CCC1)=O

>  <InChIKey>
OQFQFKPTRRVJRU-UHFFFAOYSA-N

>  <Molecular Formula>
C13H25NO

>  <Target Organism>
Anopheles spp.

>  <Reference DOI>
10.1186/s13071-017-2122-8

>  <Activity Label>
1

>  <Repellency>
Active

>  <IUPAC>
1-(3-methylpiperidin-1-yl)heptan-1-one

>  <Common name>
1-(3-Methylpiperidin-1-yl)heptan-1-one

$$$$
Compound 267
     RDKit          2D

  0  0  0  0  0  0  0  0  0  0999 V3000
M  V30 BEGIN CTAB
M  V30 COUNTS 15 16 0 0 0
M  V30 BEGIN ATOM
M  V30 1 C 0.000000 0.000000 0.000000 0
M  V30 2 C 1.295400 0.843800 0.000000 0
M  V30 3 C -0.035600 -1.449900 0.000000 0
M  V30 4 C -1.331100 0.784400 0.000000 0
M  V30 5 C 2.602800 0.130700 0.000000 0
M  V30 6 C 1.259800 -2.222500 0.000000 0
M  V30 7 C -1.366700 -2.139300 0.000000 0
M  V30 8 C -0.071300 -2.899900 0.000000 0
M  V30 9 C -2.662200 0.095000 0.000000 0
M  V30 10 C 2.567100 -1.378600 0.000000 0
M  V30 11 C 1.212200 -3.672400 0.000000 0
M  V30 12 C -2.697900 -1.366700 0.000000 0
M  V30 13 C -4.029000 -2.056100 0.000000 0
M  V30 14 C -4.064600 -3.506000 0.000000 0
M  V30 15 C -5.360100 -1.271700 0.000000 0
M  V30 END ATOM
M  V30 BEGIN BOND
M  V30 1 2 1 2
M  V30 2 1 1 3
M  V30 3 1 1 4
M  V30 4 1 2 5
M  V30 5 1 3 6
M  V30 6 1 3 7
M  V30 7 1 3 8 CFG=1
M  V30 8 1 4 9
M  V30 9 1 5 10
M  V30 10 1 6 11 CFG=1
M  V30 11 1 7 12
M  V30 12 1 12 13 CFG=3
M  V30 13 2 13 14
M  V30 14 1 13 15
M  V30 15 1 6 10
M  V30 16 1 9 12
M  V30 END BOND
M  V30 BEGIN COLLECTION
M  V30 MDLV30/STEABS ATOMS=(3 3 6 12)
M  V30 END COLLECTION
M  V30 END CTAB
M  END
>  <Structure No>
267

>  <Molecule Name>
Valencene

>  <PubChem CID>
9855795

>  <SMILES>
C[C@H]1[C@](C)(C[C@@H](CC2)C(C)=C)C2=CCC1

>  <InChIKey>
QEBNYNLSCGVZOH-NFAWXSAZSA-N

>  <Molecular Formula>
C15H24

>  <Target Organism>
Anopheles spp.

>  <Reference DOI>
10.1186/s13071-017-2122-8

>  <Activity Label>
1

>  <Repellency>
Active

>  <IUPAC>
(3R,4aS,5R)-4a,5-dimethyl-3-prop-1-en-2-yl-2,3,4,5,6,7-hexahydro-1H-naphthalene

>  <Common name>
Valencene

$$$$
Compound 268
     RDKit          2D

  0  0  0  0  0  0  0  0  0  0999 V3000
M  V30 BEGIN CTAB
M  V30 COUNTS 15 16 0 0 0
M  V30 BEGIN ATOM
M  V30 1 C 0.000000 0.000000 0.000000 0
M  V30 2 C -0.110600 1.562000 0.000000 0
M  V30 3 C -1.365200 -0.614900 0.000000 0
M  V30 4 C 1.156100 -0.614900 0.000000 0
M  V30 5 C -2.878000 -0.122900 0.000000 0
M  V30 6 C -1.094600 0.910100 0.000000 0
M  V30 7 C 1.254500 -2.066300 0.000000 0
M  V30 8 C -2.619700 1.402100 0.000000 0
M  V30 9 C -3.370000 -1.414400 0.000000 0
M  V30 10 C -0.122900 -2.681200 0.000000 0
M  V30 11 C -2.361500 2.914900 0.000000 0
M  V30 12 C -4.132600 1.881800 0.000000 0
M  V30 13 C -2.755000 -2.558200 0.000000 0
M  V30 14 C -1.488200 -1.894100 0.000000 0
M  V30 15 C -1.598900 -0.332000 0.000000 0
M  V30 END ATOM
M  V30 BEGIN BOND
M  V30 1 2 1 2
M  V30 2 1 3 1
M  V30 3 1 1 4
M  V30 4 1 3 5
M  V30 5 1 3 6 CFG=1
M  V30 6 1 4 7
M  V30 7 1 5 8
M  V30 8 1 5 9 CFG=1
M  V30 9 1 7 10
M  V30 10 1 8 11
M  V30 11 1 8 12
M  V30 12 1 9 13
M  V30 13 2 10 14
M  V30 14 1 14 15
M  V30 15 1 6 8
M  V30 16 1 13 14
M  V30 END BOND
M  V30 BEGIN COLLECTION
M  V30 MDLV30/STEABS ATOMS=(2 3 5)
M  V30 END COLLECTION
M  V30 END CTAB
M  END
>  <Structure No>
268

>  <Molecule Name>
BETA-CARYOPHYLLENE

>  <PubChem CID>
5281522

>  <SMILES>
CC(C)(C1)[C@H](CC/C(\C)=C/CC2)[C@H]1C2=C

>  <InChIKey>
NPNUFJAVOOONJE-GFUGXAQUSA-N

>  <Molecular Formula>
C15H24

>  <Target Organism>
Anopheles spp.

>  <Reference DOI>
10.1186/s13071-017-2122-8

>  <Activity Label>
1

>  <Repellency>
Active

>  <IUPAC>


>  <Common name>
BETA-CARYOPHYLLENE

$$$$
Compound 269
     RDKit          2D

  0  0  0  0  0  0  0  0  0  0999 V3000
M  V30 BEGIN CTAB
M  V30 COUNTS 15 16 0 0 0
M  V30 BEGIN ATOM
M  V30 1 O 0.000000 0.000000 0.000000 0
M  V30 2 C -0.038300 1.469000 0.000000 0
M  V30 3 O -1.315700 2.248200 0.000000 0
M  V30 4 C 1.162400 2.248200 0.000000 0
M  V30 5 C -2.593100 1.545600 0.000000 0
M  V30 6 C 1.277400 3.717300 0.000000 0
M  V30 7 C 2.427100 1.686200 0.000000 0
M  V30 8 C 2.644200 4.062200 0.000000 0
M  V30 9 C 2.427100 5.339600 0.000000 0
M  V30 10 C 2.695300 0.319300 0.000000 0
M  V30 11 C 3.334000 2.784700 0.000000 0
M  V30 12 C 3.691700 4.777500 0.000000 0
M  V30 13 O 4.023800 -0.102100 0.000000 0
M  V30 14 O 1.596700 -0.587600 0.000000 0
M  V30 15 C 1.865000 -1.954400 0.000000 0
M  V30 END ATOM
M  V30 BEGIN BOND
M  V30 1 2 1 2
M  V30 2 1 2 3
M  V30 3 1 2 4
M  V30 4 1 3 5
M  V30 5 2 4 6
M  V30 6 1 4 7
M  V30 7 1 6 8
M  V30 8 1 6 9
M  V30 9 1 7 10 CFG=3
M  V30 10 1 7 11
M  V30 11 1 9 12
M  V30 12 2 10 13
M  V30 13 1 10 14
M  V30 14 1 14 15
M  V30 15 1 11 8
M  V30 16 1 11 12 CFG=1
M  V30 END BOND
M  V30 BEGIN COLLECTION
M  V30 MDLV30/STEABS ATOMS=(2 7 11)
M  V30 END COLLECTION
M  V30 END CTAB
M  END
>  <Structure No>
269

>  <Molecule Name>
cis-Bicyclo-(2,2,1)heptene-2,3-dicarboxylic acid, dimethyl ester

>  <PubChem CID>
Not found

>  <SMILES>
COC([C@@H]1C(C(OC)=O)=C2C[C@H]1CC2)=O

>  <InChIKey>
BVHFJUMZSONASW-SVRRBLITSA-N

>  <Molecular Formula>
C11H14O4

>  <Target Organism>
Aedes aegypti

>  <Reference DOI>
10.3390/toxics11100837

>  <Activity Label>
1

>  <Repellency>
Active

>  <IUPAC>


>  <Common name>
cis-Bicyclo-(2,2,1)heptene-2,3-dicarboxylic acid, dimethyl ester

$$$$
Compound 270
     RDKit          2D

  0  0  0  0  0  0  0  0  0  0999 V3000
M  V30 BEGIN CTAB
M  V30 COUNTS 15 16 0 0 0
M  V30 BEGIN ATOM
M  V30 1 O 0.000000 0.000000 0.000000 0
M  V30 2 C 1.310800 0.566000 0.000000 0
M  V30 3 O 1.459800 2.189700 0.000000 0
M  V30 4 C 2.338600 -0.223400 0.000000 0
M  V30 5 C 2.770600 2.755700 0.000000 0
M  V30 6 C 2.055600 -1.593800 0.000000 0
M  V30 7 C 3.694100 0.193600 0.000000 0
M  V30 8 C 0.595800 -2.145000 0.000000 0
M  V30 9 C 3.321700 -2.025800 0.000000 0
M  V30 10 C 5.496600 -0.297900 0.000000 0
M  V30 11 C 4.245300 -0.998000 0.000000 0
M  V30 12 O -0.863900 -1.325700 0.000000 0
M  V30 13 O 0.461700 -3.530300 0.000000 0
M  V30 14 C 5.213500 -1.653400 0.000000 0
M  V30 15 C -0.998000 -4.081400 0.000000 0
M  V30 END ATOM
M  V30 BEGIN BOND
M  V30 1 2 1 2
M  V30 2 1 2 3
M  V30 3 1 4 2 CFG=1
M  V30 4 1 3 5
M  V30 5 1 4 6
M  V30 6 1 4 7
M  V30 7 1 6 8 CFG=1
M  V30 8 1 6 9
M  V30 9 1 7 10 CFG=1
M  V30 10 1 7 11
M  V30 11 2 8 12
M  V30 12 1 8 13
M  V30 13 1 9 14 CFG=1
M  V30 14 1 13 15
M  V30 15 1 9 11
M  V30 16 2 10 14
M  V30 END BOND
M  V30 BEGIN COLLECTION
M  V30 MDLV30/STEABS ATOMS=(4 4 6 7 9)
M  V30 END COLLECTION
M  V30 END CTAB
M  END
>  <Structure No>
270

>  <Molecule Name>
Dimethyl carbate (DMC)

>  <PubChem CID>
10921747

>  <SMILES>
COC([C@H]([C@@H]1C=C[C@H]2C1)[C@H]2C(OC)=O)=O

>  <InChIKey>
VGQLNJWOULYVFV-SPJNRGJMSA-N

>  <Molecular Formula>
C11H14O4

>  <Target Organism>
Anopheles spp.

>  <Reference DOI>
10.1186/s13071-017-2122-8

>  <Activity Label>
1

>  <Repellency>
Active

>  <IUPAC>
dimethyl (1S,2R,3S,4R)-bicyclo[2.2.1]hept-5-ene-2,3-dicarboxylate

>  <Common name>
Dimethyl carbate (DMC)

$$$$
Compound 271
     RDKit          2D

  0  0  0  0  0  0  0  0  0  0999 V3000
M  V30 BEGIN CTAB
M  V30 COUNTS 15 16 0 0 0
M  V30 BEGIN ATOM
M  V30 1 Cl 0.000000 0.000000 0.000000 0
M  V30 2 C -1.318300 -0.731000 0.000000 0
M  V30 3 C -2.636600 0.023900 0.000000 0
M  V30 4 C -1.354200 -2.181200 0.000000 0
M  V30 5 C -3.955000 -0.695100 0.000000 0
M  V30 6 C -2.672600 -2.912300 0.000000 0
M  V30 7 C -3.990900 -2.145300 0.000000 0
M  V30 8 C -5.309300 -2.876300 0.000000 0
M  V30 9 C -6.627600 -2.109300 0.000000 0
M  V30 10 O -6.663600 -0.587200 0.000000 0
M  V30 11 C -7.946000 -2.840400 0.000000 0
M  V30 12 O -9.336200 -2.181200 0.000000 0
M  V30 13 C -8.137700 -4.278600 0.000000 0
M  V30 14 C -10.354900 -3.235900 0.000000 0
M  V30 15 C -9.623900 -4.554200 0.000000 0
M  V30 END ATOM
M  V30 BEGIN BOND
M  V30 1 1 1 2
M  V30 2 2 2 3
M  V30 3 1 2 4
M  V30 4 1 3 5
M  V30 5 2 4 6
M  V30 6 2 5 7
M  V30 7 1 7 8
M  V30 8 1 8 9
M  V30 9 1 9 10 CFG=1
M  V30 10 1 9 11
M  V30 11 1 11 12
M  V30 12 2 11 13
M  V30 13 1 12 14
M  V30 14 1 13 15
M  V30 15 1 6 7
M  V30 16 2 14 15
M  V30 END BOND
M  V30 BEGIN COLLECTION
M  V30 MDLV30/STERAC1 ATOMS=(1 9)
M  V30 END COLLECTION
M  V30 END CTAB
M  END
>  <Structure No>
271

>  <Molecule Name>
2-(4-Chlorophenyl)-1-(furan-2-yl)ethanol

>  <PubChem CID>
62717146

>  <SMILES>
OC(Cc(cc1)ccc1Cl)c1ccc[o]1

>  <InChIKey>
YRTUYJAXPOAYAR-NSHDSACASA-N

>  <Molecular Formula>
C12H11O2Cl

>  <Target Organism>
Aedes aegypti

>  <Reference DOI>
10.3390/toxics11100837

>  <Activity Label>
1

>  <Repellency>
Active

>  <IUPAC>
2-(4-chlorophenyl)-1-(furan-2-yl)ethanol

>  <Common name>
2-(4-Chlorophenyl)-1-(furan-2-yl)ethanol

$$$$
Compound 272
     RDKit          2D

 15 16  0  0  0  0  0  0  0  0999 V2000
    0.0000    0.0000    0.0000 O   0  0  0  0  0  0  0  0  0  0  0  0
    1.2740    0.7991    0.0000 C   0  0  0  0  0  0  0  0  0  0  0  0
   -1.3435    0.7991    0.0000 C   0  0  0  0  0  0  0  0  0  0  0  0
    2.5480    0.1042    0.0000 C   0  0  0  0  0  0  0  0  0  0  0  0
   -2.6870    0.1042    0.0000 C   0  0  0  0  0  0  0  0  0  0  0  0
    2.5132   -1.3666    0.0000 C   0  0  0  0  0  0  0  0  0  0  0  0
    3.8220    0.9033    0.0000 C   0  0  0  0  0  0  0  0  0  0  0  0
   -4.0305    0.9149    0.0000 C   0  0  0  0  0  0  0  0  0  0  0  0
   -2.7217   -1.3666    0.0000 C   0  0  0  0  0  0  0  0  0  0  0  0
    3.7872   -2.0731    0.0000 C   0  0  0  0  0  0  0  0  0  0  0  0
    5.0960    0.1968    0.0000 C   0  0  0  0  0  0  0  0  0  0  0  0
   -5.3740    0.1968    0.0000 C   0  0  0  0  0  0  0  0  0  0  0  0
   -4.0652   -2.0615    0.0000 C   0  0  0  0  0  0  0  0  0  0  0  0
    5.0612   -1.2740    0.0000 C   0  0  0  0  0  0  0  0  0  0  0  0
   -5.4087   -1.2740    0.0000 C   0  0  0  0  0  0  0  0  0  0  0  0
  1  2  1  0
  1  3  1  0
  2  4  1  0
  3  5  1  0
  4  6  2  0
  4  7  1  0
  5  8  2  0
  5  9  1  0
  6 10  1  0
  7 11  2  0
  8 12  1  0
  9 13  2  0
 10 14  2  0
 12 15  2  0
 11 14  1  0
 13 15  1  0
M  END
>  <Structure No>
272

>  <Molecule Name>
Dibenzyl ether

>  <PubChem CID>
7657

>  <SMILES>
C(c1ccccc1)OCc1ccccc1

>  <InChIKey>
MHDVGSVTJDSBDK-UHFFFAOYSA-N

>  <Molecular Formula>
C14H14O

>  <Target Organism>
Aedes aegypti

>  <Reference DOI>
10.3390/toxics11100837

>  <Activity Label>
1

>  <Repellency>
Active

>  <IUPAC>
phenylmethoxymethylbenzene

>  <Common name>
Dibenzyl ether

$$$$
Compound 273
     RDKit          2D

 15 16  0  0  0  0  0  0  0  0999 V2000
    0.0000    0.0000    0.0000 O   0  0  0  0  0  0  0  0  0  0  0  0
   -1.3387   -0.7108    0.0000 C   0  0  0  0  0  0  0  0  0  0  0  0
   -2.6774    0.0710    0.0000 O   0  0  0  0  0  0  0  0  0  0  0  0
   -1.3742   -2.1798    0.0000 C   0  0  0  0  0  0  0  0  0  0  0  0
   -4.0162   -0.6397    0.0000 C   0  0  0  0  0  0  0  0  0  0  0  0
   -0.1066   -1.3979    0.0000 O   0  0  0  0  0  0  0  0  0  0  0  0
   -2.7130   -2.8907    0.0000 C   0  0  0  0  0  0  0  0  0  0  0  0
   -0.1066   -2.8907    0.0000 C   0  0  0  0  0  0  0  0  0  0  0  0
   -5.4260    0.0118    0.0000 C   0  0  0  0  0  0  0  0  0  0  0  0
   -4.2057   -2.0969    0.0000 C   0  0  0  0  0  0  0  0  0  0  0  0
   -2.7485   -4.3597    0.0000 C   0  0  0  0  0  0  0  0  0  0  0  0
   -0.1421   -4.3597    0.0000 C   0  0  0  0  0  0  0  0  0  0  0  0
   -6.4685   -1.0662    0.0000 C   0  0  0  0  0  0  0  0  0  0  0  0
   -5.7103   -2.3694    0.0000 C   0  0  0  0  0  0  0  0  0  0  0  0
   -1.4809   -5.0942    0.0000 C   0  0  0  0  0  0  0  0  0  0  0  0
  1  2  2  0
  2  3  1  0
  2  4  1  0
  3  5  1  0
  4  6  1  0
  4  7  1  0
  4  8  1  0
  5  9  1  0
  5 10  1  0
  7 11  1  0
  8 12  1  0
  9 13  1  0
 10 14  1  0
 11 15  1  0
 12 15  1  0
 13 14  1  0
M  END
>  <Structure No>
273

>  <Molecule Name>
Cyclopentyl 1-hydroxycyclohexanecarboxylate

>  <PubChem CID>
347864

>  <SMILES>
OC1(CCCCC1)C(OC1CCCC1)=O

>  <InChIKey>
QWHUROPPZQHVDU-UHFFFAOYSA-N

>  <Molecular Formula>
C12H20O3

>  <Target Organism>
Aedes aegypti

>  <Reference DOI>
10.3390/toxics11100837

>  <Activity Label>
1

>  <Repellency>
Active

>  <IUPAC>
cyclopentyl 1-hydroxycyclohexane-1-carboxylate

>  <Common name>
Cyclopentyl 1-hydroxycyclohexanecarboxylate

$$$$
Compound 274
     RDKit          2D

 15 16  0  0  0  0  0  0  0  0999 V2000
    0.0000    0.0000    0.0000 O   0  0  0  0  0  0  0  0  0  0  0  0
   -1.3350   -0.6905    0.0000 C   0  0  0  0  0  0  0  0  0  0  0  0
   -2.6700    0.0920    0.0000 O   0  0  0  0  0  0  0  0  0  0  0  0
   -1.3695   -2.1521    0.0000 C   0  0  0  0  0  0  0  0  0  0  0  0
   -4.0050   -0.5984    0.0000 C   0  0  0  0  0  0  0  0  0  0  0  0
   -0.0690   -1.4500    0.0000 O   0  0  0  0  0  0  0  0  0  0  0  0
   -2.6239   -3.0152    0.0000 C   0  0  0  0  0  0  0  0  0  0  0  0
   -0.1841   -3.0152    0.0000 C   0  0  0  0  0  0  0  0  0  0  0  0
   -5.3400    0.2071    0.0000 C   0  0  0  0  0  0  0  0  0  0  0  0
   -4.0395   -2.0600    0.0000 C   0  0  0  0  0  0  0  0  0  0  0  0
   -2.2096   -4.4078    0.0000 C   0  0  0  0  0  0  0  0  0  0  0  0
   -0.6675   -4.4078    0.0000 C   0  0  0  0  0  0  0  0  0  0  0  0
   -6.6750   -0.4833    0.0000 C   0  0  0  0  0  0  0  0  0  0  0  0
   -5.3745   -2.7505    0.0000 C   0  0  0  0  0  0  0  0  0  0  0  0
   -6.7095   -1.9449    0.0000 C   0  0  0  0  0  0  0  0  0  0  0  0
  1  2  2  0
  2  3  1  0
  2  4  1  0
  3  5  1  0
  4  6  1  0
  4  7  1  0
  4  8  1  0
  5  9  1  0
  5 10  1  0
  7 11  1  0
  8 12  1  0
  9 13  1  0
 10 14  1  0
 13 15  1  0
 11 12  1  0
 14 15  1  0
M  END
>  <Structure No>
274

>  <Molecule Name>
Cyclohexyl 1-hydroxycyclopentane-1-carboxylate

>  <PubChem CID>
245370

>  <SMILES>
OC1(CCCC1)C(OC1CCCCC1)=O

>  <InChIKey>
SWRNQIPNJNOJFR-UHFFFAOYSA-N

>  <Molecular Formula>
C12H20O3

>  <Target Organism>
Aedes aegypti

>  <Reference DOI>
10.3390/toxics11100837

>  <Activity Label>
1

>  <Repellency>
Active

>  <IUPAC>
cyclohexyl 1-hydroxycyclopentane-1-carboxylate

>  <Common name>
Cyclohexyl 1-hydroxycyclopentane-1-carboxylate

$$$$
Compound 275
     RDKit          2D

 15 16  0  0  0  0  0  0  0  0999 V2000
    0.0000    0.0000    0.0000 O   0  0  0  0  0  0  0  0  0  0  0  0
   -1.1291    1.0210    0.0000 C   0  0  0  0  0  0  0  0  0  0  0  0
   -1.0090    2.5346    0.0000 N   0  0  0  0  0  0  0  0  0  0  0  0
   -2.6187    0.7447    0.0000 C   0  0  0  0  0  0  0  0  0  0  0  0
   -2.4025    3.1953    0.0000 C   0  0  0  0  0  0  0  0  0  0  0  0
    0.2402    3.3034    0.0000 C   0  0  0  0  0  0  0  0  0  0  0  0
   -3.3875    2.0661    0.0000 C   0  0  0  0  0  0  0  0  0  0  0  0
   -3.3875   -0.5045    0.0000 C   0  0  0  0  0  0  0  0  0  0  0  0
   -2.7508    4.6849    0.0000 O   0  0  0  0  0  0  0  0  0  0  0  0
    1.4895    2.5706    0.0000 C   0  0  0  0  0  0  0  0  0  0  0  0
   -4.9131    2.1022    0.0000 C   0  0  0  0  0  0  0  0  0  0  0  0
   -4.9131   -0.4684    0.0000 C   0  0  0  0  0  0  0  0  0  0  0  0
    2.7388    3.3395    0.0000 C   0  0  0  0  0  0  0  0  0  0  0  0
   -5.6819    0.8528    0.0000 C   0  0  0  0  0  0  0  0  0  0  0  0
    3.9881    2.6067    0.0000 C   0  0  0  0  0  0  0  0  0  0  0  0
  1  2  2  0
  2  3  1  0
  2  4  1  0
  3  5  1  0
  3  6  1  0
  4  7  1  0
  4  8  1  0
  5  9  2  0
  6 10  1  0
  7 11  1  0
  8 12  1  0
 10 13  1  0
 11 14  1  0
 13 15  1  0
  5  7  1  0
 12 14  2  0
M  END
>  <Structure No>
275

>  <Molecule Name>
2-Butyl-3a,4,7,7a-tetrahydro-1H-isoindole-1,3(2H)-dione

>  <PubChem CID>
95074

>  <SMILES>
CCCCN(C(C1C2CC=CC1)=O)C2=O

>  <InChIKey>
HZZBHUQGZJXCEV-UHFFFAOYSA-N

>  <Molecular Formula>
C12H17NO2

>  <Target Organism>
Aedes aegypti

>  <Reference DOI>
10.3390/toxics11100837

>  <Activity Label>
1

>  <Repellency>
Active

>  <IUPAC>
2-butyl-3a,4,7,7a-tetrahydroisoindole-1,3-dione

>  <Common name>
2-Butyl-3a,4,7,7a-tetrahydro-1H-isoindole-1,3(2H)-dione

$$$$
Compound 276
     RDKit          2D

 15 16  0  0  0  0  0  0  0  0999 V2000
    0.0000    0.0000    0.0000 O   0  0  0  0  0  0  0  0  0  0  0  0
   -1.1291    1.0210    0.0000 C   0  0  0  0  0  0  0  0  0  0  0  0
   -1.0090    2.5346    0.0000 N   0  0  0  0  0  0  0  0  0  0  0  0
   -2.6187    0.7447    0.0000 C   0  0  0  0  0  0  0  0  0  0  0  0
   -2.4025    3.1953    0.0000 C   0  0  0  0  0  0  0  0  0  0  0  0
    0.2402    3.3034    0.0000 C   0  0  0  0  0  0  0  0  0  0  0  0
   -3.3875    2.0661    0.0000 C   0  0  0  0  0  0  0  0  0  0  0  0
   -3.3875   -0.5045    0.0000 C   0  0  0  0  0  0  0  0  0  0  0  0
   -2.7508    4.6849    0.0000 O   0  0  0  0  0  0  0  0  0  0  0  0
    1.4895    2.5706    0.0000 C   0  0  0  0  0  0  0  0  0  0  0  0
   -4.9131    2.1022    0.0000 C   0  0  0  0  0  0  0  0  0  0  0  0
   -4.9131   -0.4684    0.0000 C   0  0  0  0  0  0  0  0  0  0  0  0
    2.7388    3.3395    0.0000 C   0  0  0  0  0  0  0  0  0  0  0  0
   -5.6819    0.8528    0.0000 C   0  0  0  0  0  0  0  0  0  0  0  0
    3.9881    2.6067    0.0000 C   0  0  0  0  0  0  0  0  0  0  0  0
  1  2  2  0
  2  3  1  0
  2  4  1  0
  3  5  1  0
  3  6  1  0
  4  7  1  0
  4  8  1  0
  5  9  2  0
  6 10  1  0
  7 11  1  0
  8 12  1  0
 10 13  1  0
 11 14  1  0
 13 15  1  0
  5  7  1  0
 12 14  1  0
M  END
>  <Structure No>
276

>  <Molecule Name>
2-Butyl-3a,4,5,6,7,7a-hexahydroisoindole-1,3-dione

>  <PubChem CID>
45133407

>  <SMILES>
CCCCN(C(C1C2CCCC1)=O)C2=O

>  <InChIKey>
CKRGZAJCIHRLRI-UHFFFAOYSA-N

>  <Molecular Formula>
C12H19NO2

>  <Target Organism>
Aedes aegypti

>  <Reference DOI>
10.3390/toxics11100837

>  <Activity Label>
1

>  <Repellency>
Active

>  <IUPAC>
2-butyl-3a,4,5,6,7,7a-hexahydroisoindole-1,3-dione

>  <Common name>
2-Butyl-3a,4,5,6,7,7a-hexahydroisoindole-1,3-dione

$$$$
Compound 277
     RDKit          2D

 15 16  0  0  0  0  0  0  0  0999 V2000
    0.0000    0.0000    0.0000 O   0  0  0  0  0  0  0  0  0  0  0  0
   -1.1289    1.0208    0.0000 C   0  0  0  0  0  0  0  0  0  0  0  0
   -1.0088    2.5340    0.0000 N   0  0  0  0  0  0  0  0  0  0  0  0
   -2.6181    0.7446    0.0000 C   0  0  0  0  0  0  0  0  0  0  0  0
   -2.4019    3.1946    0.0000 C   0  0  0  0  0  0  0  0  0  0  0  0
    0.2401    3.3026    0.0000 C   0  0  0  0  0  0  0  0  0  0  0  0
   -3.3867    2.0656    0.0000 C   0  0  0  0  0  0  0  0  0  0  0  0
   -3.3867   -0.5044    0.0000 C   0  0  0  0  0  0  0  0  0  0  0  0
   -2.7502    4.6838    0.0000 O   0  0  0  0  0  0  0  0  0  0  0  0
    1.4892    2.5700    0.0000 C   0  0  0  0  0  0  0  0  0  0  0  0
   -4.9120    2.1017    0.0000 C   0  0  0  0  0  0  0  0  0  0  0  0
   -4.9120   -0.4683    0.0000 C   0  0  0  0  0  0  0  0  0  0  0  0
    2.7382    3.3387    0.0000 C   0  0  0  0  0  0  0  0  0  0  0  0
    1.4531    1.1169    0.0000 C   0  0  0  0  0  0  0  0  0  0  0  0
   -5.6806    0.8526    0.0000 C   0  0  0  0  0  0  0  0  0  0  0  0
  1  2  2  0
  2  3  1  0
  2  4  1  0
  3  5  1  0
  3  6  1  0
  4  7  1  0
  4  8  1  0
  5  9  2  0
  6 10  1  0
  7 11  1  0
  8 12  1  0
 10 13  1  0
 10 14  1  0
 11 15  1  0
  5  7  1  0
 12 15  2  0
M  END
>  <Structure No>
277

>  <Molecule Name>
2-(2-methylpropyl)-3a,4,7,7a-tetrahydro-1H-isoindole-1,3(2H)-dione

>  <PubChem CID>
5003903

>  <SMILES>
CC(C)CN(C(C1C2CC=CC1)=O)C2=O

>  <InChIKey>
RJVDGBPUJARLGF-UHFFFAOYSA-N

>  <Molecular Formula>
C12H17NO2

>  <Target Organism>
Aedes aegypti

>  <Reference DOI>
10.3390/toxics11100837

>  <Activity Label>
1

>  <Repellency>
Active

>  <IUPAC>
2-(2-methylpropyl)-3a,4,7,7a-tetrahydroisoindole-1,3-dione

>  <Common name>
2-(2-methylpropyl)-3a,4,7,7a-tetrahydro-1H-isoindole-1,3(2H)-dione

$$$$
Compound 278
     RDKit          2D

 15 16  0  0  0  0  0  0  0  0999 V2000
    0.0000    0.0000    0.0000 O   0  0  0  0  0  0  0  0  0  0  0  0
   -1.1289    1.0208    0.0000 C   0  0  0  0  0  0  0  0  0  0  0  0
   -1.0088    2.5340    0.0000 N   0  0  0  0  0  0  0  0  0  0  0  0
   -2.6181    0.7446    0.0000 C   0  0  0  0  0  0  0  0  0  0  0  0
   -2.4019    3.1946    0.0000 C   0  0  0  0  0  0  0  0  0  0  0  0
    0.2401    3.3026    0.0000 C   0  0  0  0  0  0  0  0  0  0  0  0
   -3.3867    2.0656    0.0000 C   0  0  0  0  0  0  0  0  0  0  0  0
   -3.3867   -0.5044    0.0000 C   0  0  0  0  0  0  0  0  0  0  0  0
   -2.7502    4.6838    0.0000 O   0  0  0  0  0  0  0  0  0  0  0  0
    1.4892    2.5700    0.0000 C   0  0  0  0  0  0  0  0  0  0  0  0
   -4.9120    2.1017    0.0000 C   0  0  0  0  0  0  0  0  0  0  0  0
   -4.9120   -0.4683    0.0000 C   0  0  0  0  0  0  0  0  0  0  0  0
    2.7382    3.3387    0.0000 C   0  0  0  0  0  0  0  0  0  0  0  0
    1.4531    1.1169    0.0000 C   0  0  0  0  0  0  0  0  0  0  0  0
   -5.6806    0.8526    0.0000 C   0  0  0  0  0  0  0  0  0  0  0  0
  1  2  2  0
  2  3  1  0
  2  4  1  0
  3  5  1  0
  3  6  1  0
  4  7  1  0
  4  8  1  0
  5  9  2  0
  6 10  1  0
  7 11  1  0
  8 12  1  0
 10 13  1  0
 10 14  1  0
 11 15  1  0
  5  7  1  0
 12 15  1  0
M  END
>  <Structure No>
278

>  <Molecule Name>
2-(2-Methylpropyl)-3a,4,5,6,7,7a-hexahydroisoindole-1,3-dione

>  <PubChem CID>
17296588

>  <SMILES>
CC(C)CN(C(C1C2CCCC1)=O)C2=O

>  <InChIKey>
WWEQGOIIPUEQRK-UHFFFAOYSA-N

>  <Molecular Formula>
C12H19NO2

>  <Target Organism>
Aedes aegypti

>  <Reference DOI>
10.3390/toxics11100837

>  <Activity Label>
1

>  <Repellency>
Active

>  <IUPAC>
2-(2-methylpropyl)-3a,4,5,6,7,7a-hexahydroisoindole-1,3-dione

>  <Common name>
2-(2-Methylpropyl)-3a,4,5,6,7,7a-hexahydroisoindole-1,3-dione

$$$$
Compound 279
     RDKit          2D

  0  0  0  0  0  0  0  0  0  0999 V3000
M  V30 BEGIN CTAB
M  V30 COUNTS 15 16 0 0 0
M  V30 BEGIN ATOM
M  V30 1 O 0.000000 0.000000 0.000000 0
M  V30 2 C -1.456400 -0.433300 0.000000 0
M  V30 3 N -2.696100 0.469400 0.000000 0
M  V30 4 C -1.961900 -1.817500 0.000000 0
M  V30 5 C -3.935900 -0.361000 0.000000 0
M  V30 6 C -2.732200 1.998000 0.000000 0
M  V30 7 C -3.490500 -1.781300 0.000000 0
M  V30 8 C -1.227700 -3.069300 0.000000 0
M  V30 9 O -5.392300 0.144400 0.000000 0
M  V30 10 C -4.056200 2.768300 0.000000 0
M  V30 11 C -1.480400 2.768300 0.000000 0
M  V30 12 C -4.260900 -3.033100 0.000000 0
M  V30 13 C -1.998000 -4.321000 0.000000 0
M  V30 14 C -5.380300 2.034100 0.000000 0
M  V30 15 C -3.538700 -4.284900 0.000000 0
M  V30 END ATOM
M  V30 BEGIN BOND
M  V30 1 2 1 2
M  V30 2 1 2 3
M  V30 3 1 2 4
M  V30 4 1 3 5
M  V30 5 1 3 6
M  V30 6 2 4 7
M  V30 7 1 4 8
M  V30 8 2 5 9
M  V30 9 1 6 10
M  V30 10 1 6 11 CFG=3
M  V30 11 1 7 12
M  V30 12 2 8 13
M  V30 13 1 10 14
M  V30 14 2 12 15
M  V30 15 1 5 7
M  V30 16 1 13 15
M  V30 END BOND
M  V30 BEGIN COLLECTION
M  V30 MDLV30/STERAC1 ATOMS=(1 6)
M  V30 END COLLECTION
M  V30 END CTAB
M  END
>  <Structure No>
279

>  <Molecule Name>
1H-Isoindole-1,3(2H)-dione, 2-(1-methylpropyl)-

>  <PubChem CID>
95380

>  <SMILES>
CCC(C)N(C(c1c2cccc1)=O)C2=O

>  <InChIKey>
ZTXOTHWCDVUQRM-QMMMGPOBSA-N

>  <Molecular Formula>
C12H13NO2

>  <Target Organism>
Aedes aegypti

>  <Reference DOI>
10.3390/toxics11100837

>  <Activity Label>
1

>  <Repellency>
Active

>  <IUPAC>
2-butan-2-ylisoindole-1,3-dione

>  <Common name>
1H-Isoindole-1,3(2H)-dione, 2-(1-methylpropyl)-

$$$$
Compound 280
     RDKit          2D

 15 16  0  0  0  0  0  0  0  0999 V2000
    0.0000    0.0000    0.0000 O   0  0  0  0  0  0  0  0  0  0  0  0
   -1.4564   -0.4333    0.0000 C   0  0  0  0  0  0  0  0  0  0  0  0
   -2.6961    0.4694    0.0000 N   0  0  0  0  0  0  0  0  0  0  0  0
   -1.9619   -1.8175    0.0000 C   0  0  0  0  0  0  0  0  0  0  0  0
   -3.9359   -0.3610    0.0000 C   0  0  0  0  0  0  0  0  0  0  0  0
   -2.7322    1.9980    0.0000 C   0  0  0  0  0  0  0  0  0  0  0  0
   -3.4905   -1.7813    0.0000 C   0  0  0  0  0  0  0  0  0  0  0  0
   -1.2277   -3.0693    0.0000 C   0  0  0  0  0  0  0  0  0  0  0  0
   -5.3923    0.1444    0.0000 O   0  0  0  0  0  0  0  0  0  0  0  0
   -4.0562    2.7683    0.0000 C   0  0  0  0  0  0  0  0  0  0  0  0
   -1.4804    2.7683    0.0000 C   0  0  0  0  0  0  0  0  0  0  0  0
   -4.2609   -3.0331    0.0000 C   0  0  0  0  0  0  0  0  0  0  0  0
   -1.9980   -4.3210    0.0000 C   0  0  0  0  0  0  0  0  0  0  0  0
   -5.3803    2.0341    0.0000 C   0  0  0  0  0  0  0  0  0  0  0  0
   -3.5387   -4.2849    0.0000 C   0  0  0  0  0  0  0  0  0  0  0  0
  1  2  2  0
  2  3  1  0
  2  4  1  0
  3  5  1  0
  3  6  1  0
  4  7  1  0
  4  8  1  0
  5  9  2  0
  6 10  1  0
  6 11  1  0
  7 12  1  0
  8 13  1  0
 10 14  1  0
 12 15  1  0
  5  7  1  0
 13 15  2  0
M  END
>  <Structure No>
280

>  <Molecule Name>
N-sec-Butyl-1,2,3,6-tetrahydrophthalimide

>  <PubChem CID>
Not found

>  <SMILES>
CCC(C)N(C(C1C2CC=CC1)=O)C2=O

>  <InChIKey>
FUGBPDZJGPFECL-UHFFFAOYSA-N

>  <Molecular Formula>
C12H17NO2

>  <Target Organism>
Aedes aegypti

>  <Reference DOI>
10.3390/toxics11100837

>  <Activity Label>
1

>  <Repellency>
Active

>  <IUPAC>


>  <Common name>
N-sec-Butyl-1,2,3,6-tetrahydrophthalimide

$$$$
Compound 281
     RDKit          2D

 15 16  0  0  0  0  0  0  0  0999 V2000
    0.0000    0.0000    0.0000 O   0  0  0  0  0  0  0  0  0  0  0  0
   -1.4564   -0.4333    0.0000 C   0  0  0  0  0  0  0  0  0  0  0  0
   -2.6961    0.4694    0.0000 N   0  0  0  0  0  0  0  0  0  0  0  0
   -1.9619   -1.8175    0.0000 C   0  0  0  0  0  0  0  0  0  0  0  0
   -3.9359   -0.3610    0.0000 C   0  0  0  0  0  0  0  0  0  0  0  0
   -2.7322    1.9980    0.0000 C   0  0  0  0  0  0  0  0  0  0  0  0
   -3.4905   -1.7813    0.0000 C   0  0  0  0  0  0  0  0  0  0  0  0
   -1.2277   -3.0693    0.0000 C   0  0  0  0  0  0  0  0  0  0  0  0
   -5.3923    0.1444    0.0000 O   0  0  0  0  0  0  0  0  0  0  0  0
   -4.0562    2.7683    0.0000 C   0  0  0  0  0  0  0  0  0  0  0  0
   -1.4804    2.7683    0.0000 C   0  0  0  0  0  0  0  0  0  0  0  0
   -4.2609   -3.0331    0.0000 C   0  0  0  0  0  0  0  0  0  0  0  0
   -1.9980   -4.3210    0.0000 C   0  0  0  0  0  0  0  0  0  0  0  0
   -5.3803    2.0341    0.0000 C   0  0  0  0  0  0  0  0  0  0  0  0
   -3.5387   -4.2849    0.0000 C   0  0  0  0  0  0  0  0  0  0  0  0
  1  2  2  0
  2  3  1  0
  2  4  1  0
  3  5  1  0
  3  6  1  0
  4  7  1  0
  4  8  1  0
  5  9  2  0
  6 10  1  0
  6 11  1  0
  7 12  1  0
  8 13  1  0
 10 14  1  0
 12 15  1  0
  5  7  1  0
 13 15  1  0
M  END
>  <Structure No>
281

>  <Molecule Name>
2-Butan-2-yl-3a,4,5,6,7,7a-hexahydroisoindole-1,3-dione

>  <PubChem CID>
12400405

>  <SMILES>
CCC(C)N(C(C1C2CCCC1)=O)C2=O

>  <InChIKey>
KOPLMJOXOLPUJL-UHFFFAOYSA-N

>  <Molecular Formula>
C12H19NO2

>  <Target Organism>
Aedes aegypti

>  <Reference DOI>
10.3390/toxics11100837

>  <Activity Label>
1

>  <Repellency>
Active

>  <IUPAC>
2-butan-2-yl-3a,4,5,6,7,7a-hexahydroisoindole-1,3-dione

>  <Common name>
2-Butan-2-yl-3a,4,5,6,7,7a-hexahydroisoindole-1,3-dione

$$$$
Compound 282
     RDKit          2D

 15 16  0  0  0  0  0  0  0  0999 V2000
    0.0000    0.0000    0.0000 O   0  0  0  0  0  0  0  0  0  0  0  0
   -1.1255    1.0177    0.0000 C   0  0  0  0  0  0  0  0  0  0  0  0
   -1.0058    2.5264    0.0000 N   0  0  0  0  0  0  0  0  0  0  0  0
   -2.6102    0.7423    0.0000 C   0  0  0  0  0  0  0  0  0  0  0  0
   -2.3947    3.1850    0.0000 C   0  0  0  0  0  0  0  0  0  0  0  0
    0.2394    3.2928    0.0000 C   0  0  0  0  0  0  0  0  0  0  0  0
   -3.3766    2.0595    0.0000 C   0  0  0  0  0  0  0  0  0  0  0  0
   -3.3766   -0.5029    0.0000 C   0  0  0  0  0  0  0  0  0  0  0  0
   -2.7420    4.6697    0.0000 O   0  0  0  0  0  0  0  0  0  0  0  0
    1.4847    2.5624    0.0000 C   0  0  0  0  0  0  0  0  0  0  0  0
    0.2035    4.8134    0.0000 C   0  0  0  0  0  0  0  0  0  0  0  0
   -4.8973    2.0954    0.0000 C   0  0  0  0  0  0  0  0  0  0  0  0
   -4.8973   -0.4669    0.0000 C   0  0  0  0  0  0  0  0  0  0  0  0
   -5.6636    0.8501    0.0000 C   0  0  0  0  0  0  0  0  0  0  0  0
   -5.6636   -1.7122    0.0000 C   0  0  0  0  0  0  0  0  0  0  0  0
  1  2  2  0
  2  3  1  0
  2  4  1  0
  3  5  1  0
  3  6  1  0
  4  7  1  0
  4  8  1  0
  5  9  2  0
  6 10  1  0
  6 11  1  0
  7 12  1  0
  8 13  1  0
 12 14  1  0
 13 15  1  0
  5  7  1  0
 13 14  1  0
M  END
>  <Structure No>
282

>  <Molecule Name>
5-Methyl-2-propan-2-yl-3a,4,5,6,7,7a-hexahydroisoindole-1,3-dione

>  <PubChem CID>
11820405

>  <SMILES>
CC(C)N(C(C1C2CC(C)CC1)=O)C2=O

>  <InChIKey>
UTUOIGUPGKSTLV-UHFFFAOYSA-N

>  <Molecular Formula>
C12H19NO2

>  <Target Organism>
Aedes aegypti

>  <Reference DOI>
10.3390/toxics11100837

>  <Activity Label>
1

>  <Repellency>
Active

>  <IUPAC>
5-methyl-2-propan-2-yl-3a,4,5,6,7,7a-hexahydroisoindole-1,3-dione

>  <Common name>
5-Methyl-2-propan-2-yl-3a,4,5,6,7,7a-hexahydroisoindole-1,3-dione

$$$$
Compound 283
     RDKit          2D

  0  0  0  0  0  0  0  0  0  0999 V3000
M  V30 BEGIN CTAB
M  V30 COUNTS 15 16 0 0 0
M  V30 BEGIN ATOM
M  V30 1 O 0.000000 0.000000 0.000000 0
M  V30 2 C -0.036500 -1.472700 0.000000 0
M  V30 3 N -1.375400 -2.215200 0.000000 0
M  V30 4 C 1.229300 -2.215200 0.000000 0
M  V30 5 C -1.411900 -3.688000 0.000000 0
M  V30 6 C -2.714300 -1.436200 0.000000 0
M  V30 7 C 2.495200 -1.436200 0.000000 0
M  V30 8 C -2.750800 -4.418300 0.000000 0
M  V30 9 C -0.146000 -4.430500 0.000000 0
M  V30 10 C -4.053200 -2.166500 0.000000 0
M  V30 11 C -2.750800 0.109500 0.000000 0
M  V30 12 C -2.787300 -5.891100 0.000000 0
M  V30 13 C -4.089700 -3.627200 0.000000 0
M  V30 14 C -0.182500 -5.903300 0.000000 0
M  V30 15 C -1.521400 -6.633600 0.000000 0
M  V30 END ATOM
M  V30 BEGIN BOND
M  V30 1 2 1 2
M  V30 2 1 2 3
M  V30 3 1 2 4
M  V30 4 1 3 5
M  V30 5 1 3 6
M  V30 6 1 4 7
M  V30 7 2 5 8
M  V30 8 1 5 9
M  V30 9 1 6 10
M  V30 10 1 6 11 CFG=3
M  V30 11 1 8 12
M  V30 12 1 8 13
M  V30 13 2 9 14
M  V30 14 2 12 15
M  V30 15 1 10 13
M  V30 16 1 14 15
M  V30 END BOND
M  V30 BEGIN COLLECTION
M  V30 MDLV30/STERAC1 ATOMS=(1 6)
M  V30 END COLLECTION
M  V30 END CTAB
M  END
>  <Structure No>
283

>  <Molecule Name>
1-(2-methyl-3,4-dihydro-2H-quinolin-1-yl)propan-1-one

>  <PubChem CID>
60630484

>  <SMILES>
CCC(N(C(C)CC1)c2c1cccc2)=O

>  <InChIKey>
SKYIRBYYWGYLQV-JTQLQIEISA-N

>  <Molecular Formula>
C13H17NO

>  <Target Organism>
Aedes aegypti

>  <Reference DOI>
10.3390/toxics11100837

>  <Activity Label>
1

>  <Repellency>
Active

>  <IUPAC>
1-(2-methyl-3,4-dihydro-2H-quinolin-1-yl)propan-1-one

>  <Common name>
1-(2-methyl-3,4-dihydro-2H-quinolin-1-yl)propan-1-one

$$$$
Compound 284
     RDKit          2D

 15 16  0  0  0  0  0  0  0  0999 V2000
    0.0000    0.0000    0.0000 O   0  0  0  0  0  0  0  0  0  0  0  0
   -1.3636    0.7934    0.0000 C   0  0  0  0  0  0  0  0  0  0  0  0
   -1.4752    2.3678    0.0000 N   0  0  0  0  0  0  0  0  0  0  0  0
   -2.7273    0.1239    0.0000 C   0  0  0  0  0  0  0  0  0  0  0  0
   -0.3347    3.1612    0.0000 C   0  0  0  0  0  0  0  0  0  0  0  0
   -2.8388    3.1612    0.0000 C   0  0  0  0  0  0  0  0  0  0  0  0
   -4.0909    0.9173    0.0000 C   0  0  0  0  0  0  0  0  0  0  0  0
   -2.8388   -1.2272    0.0000 C   0  0  0  0  0  0  0  0  0  0  0  0
   -0.4462    4.7356    0.0000 C   0  0  0  0  0  0  0  0  0  0  0  0
    0.8058    2.4793    0.0000 C   0  0  0  0  0  0  0  0  0  0  0  0
   -2.9504    4.7356    0.0000 C   0  0  0  0  0  0  0  0  0  0  0  0
   -5.4546    0.2479    0.0000 C   0  0  0  0  0  0  0  0  0  0  0  0
   -4.2025   -1.8967    0.0000 C   0  0  0  0  0  0  0  0  0  0  0  0
   -1.8099    5.5290    0.0000 C   0  0  0  0  0  0  0  0  0  0  0  0
   -5.5662   -1.1033    0.0000 C   0  0  0  0  0  0  0  0  0  0  0  0
  1  2  2  0
  2  3  1  0
  2  4  1  0
  3  5  1  0
  3  6  1  0
  4  7  1  0
  4  8  1  0
  5  9  1  0
  5 10  1  0
  6 11  1  0
  7 12  1  0
  8 13  1  0
  9 14  1  0
 12 15  2  0
 11 14  1  0
 13 15  1  0
M  END
>  <Structure No>
284

>  <Molecule Name>
AI 3-37220

>  <PubChem CID>
90567

>  <SMILES>
CC(CCCC1)N1C(C1CC=CCC1)=O

>  <InChIKey>
KRHYGGFLEBNTHQ-UHFFFAOYSA-N

>  <Molecular Formula>
C13H21NO

>  <Target Organism>
Anopheles stephensi: Aedes aegypti

>  <Reference DOI>
10.1603/0022-2585-40.3.293

>  <Activity Label>
1

>  <Repellency>
Active

>  <IUPAC>
cyclohex-3-en-1-yl-(2-methylpiperidin-1-yl)methanone

>  <Common name>
AI 3-37220

$$$$
Compound 285
     RDKit          2D

 15 17  0  0  0  0  0  0  0  0999 V2000
    0.0000    0.0000    0.0000 O   0  0  0  0  0  0  0  0  0  0  0  0
   -1.3587    0.7782    0.0000 C   0  0  0  0  0  0  0  0  0  0  0  0
   -2.7175    0.0988    0.0000 C   0  0  0  0  0  0  0  0  0  0  0  0
   -2.9892    1.6552    0.0000 O   0  0  0  0  0  0  0  0  0  0  0  0
   -4.1504   -0.4323    0.0000 C   0  0  0  0  0  0  0  0  0  0  0  0
   -1.6675   -0.6423    0.0000 C   0  0  0  0  0  0  0  0  0  0  0  0
   -4.5209    2.0875    0.0000 C   0  0  0  0  0  0  0  0  0  0  0  0
   -5.2003    0.7287    0.0000 C   0  0  0  0  0  0  0  0  0  0  0  0
   -4.4221   -1.7663    0.0000 C   0  0  0  0  0  0  0  0  0  0  0  0
   -1.9393   -1.9763    0.0000 C   0  0  0  0  0  0  0  0  0  0  0  0
   -5.3238    3.4463    0.0000 C   0  0  0  0  0  0  0  0  0  0  0  0
   -6.7691    0.8399    0.0000 C   0  0  0  0  0  0  0  0  0  0  0  0
   -3.3722   -2.5075    0.0000 C   0  0  0  0  0  0  0  0  0  0  0  0
   -6.8926    3.5574    0.0000 C   0  0  0  0  0  0  0  0  0  0  0  0
   -7.5596    2.1987    0.0000 C   0  0  0  0  0  0  0  0  0  0  0  0
  1  2  2  0
  2  3  1  0
  3  4  1  0
  3  5  1  0
  3  6  1  0
  4  7  1  0
  5  8  1  0
  5  9  1  0
  6 10  1  0
  7 11  1  0
  8 12  1  0
  9 13  1  0
 11 14  1  0
 12 15  1  0
  7  8  1  0
 10 13  2  0
 14 15  2  0
M  END
>  <Structure No>
285

>  <Molecule Name>
2,3:4,5-Di(2-butenyl)tetrahydrofurfural

>  <PubChem CID>
31341

>  <SMILES>
O=CC12OC(CC=CC3)C3C1CC=CC2

>  <InChIKey>
XNYGOEGATLFFOX-UHFFFAOYSA-N

>  <Molecular Formula>
C13H16O2

>  <Target Organism>
Phlebotomus perniciosus

>  <Reference DOI>
10.1016/0035-9203(86)90382-2

>  <Activity Label>
1

>  <Repellency>
Active

>  <IUPAC>
4,5a,6,9,9a,9b-hexahydro-1H-dibenzofuran-4a-carbaldehyde

>  <Common name>
2,3:4,5-Di(2-butenyl)tetrahydrofurfural

$$$$
Compound 286
     RDKit          2D

 16 16  0  0  0  0  0  0  0  0999 V2000
    0.0000    0.0000    0.0000 O   0  0  0  0  0  0  0  0  0  0  0  0
   -1.3249   -0.7081    0.0000 C   0  0  0  0  0  0  0  0  0  0  0  0
   -2.6499    0.0913    0.0000 O   0  0  0  0  0  0  0  0  0  0  0  0
   -1.3592   -2.1587    0.0000 C   0  0  0  0  0  0  0  0  0  0  0  0
   -3.9748   -0.6053    0.0000 C   0  0  0  0  0  0  0  0  0  0  0  0
   -0.0685   -1.4620    0.0000 O   0  0  0  0  0  0  0  0  0  0  0  0
   -2.6042   -3.0154    0.0000 C   0  0  0  0  0  0  0  0  0  0  0  0
   -0.1827   -3.0154    0.0000 C   0  0  0  0  0  0  0  0  0  0  0  0
   -5.2998    0.1941    0.0000 C   0  0  0  0  0  0  0  0  0  0  0  0
   -2.1930   -4.3974    0.0000 C   0  0  0  0  0  0  0  0  0  0  0  0
   -0.6624   -4.3974    0.0000 C   0  0  0  0  0  0  0  0  0  0  0  0
   -6.6247   -0.5025    0.0000 O   0  0  0  0  0  0  0  0  0  0  0  0
   -7.9497    0.2969    0.0000 C   0  0  0  0  0  0  0  0  0  0  0  0
   -9.2746   -0.3997    0.0000 C   0  0  0  0  0  0  0  0  0  0  0  0
  -10.5996    0.3997    0.0000 C   0  0  0  0  0  0  0  0  0  0  0  0
  -11.9245   -0.2969    0.0000 C   0  0  0  0  0  0  0  0  0  0  0  0
  1  2  2  0
  2  3  1  0
  2  4  1  0
  3  5  1  0
  4  6  1  0
  4  7  1  0
  4  8  1  0
  5  9  1  0
  7 10  1  0
  8 11  1  0
  9 12  1  0
 12 13  1  0
 13 14  1  0
 14 15  1  0
 15 16  1  0
 10 11  1  0
M  END
>  <Structure No>
286

>  <Molecule Name>
2-Butoxyethyl 1-hydroxycyclopentanecarboxylate

>  <PubChem CID>
245377

>  <SMILES>
CCCCOCCOC(C1(CCCC1)O)=O

>  <InChIKey>
CFGLHIIXIIBIDF-UHFFFAOYSA-N

>  <Molecular Formula>
C12H22O4

>  <Target Organism>
Aedes aegypti

>  <Reference DOI>
10.3390/toxics11100837

>  <Activity Label>
1

>  <Repellency>
Active

>  <IUPAC>
2-butoxyethyl 1-hydroxycyclopentane-1-carboxylate

>  <Common name>
2-Butoxyethyl 1-hydroxycyclopentanecarboxylate

$$$$
Compound 287
     RDKit          2D

 16 16  0  0  0  0  0  0  0  0999 V2000
    0.0000    0.0000    0.0000 O   0  0  0  0  0  0  0  0  0  0  0  0
   -1.3623   -0.6811    0.0000 C   0  0  0  0  0  0  0  0  0  0  0  0
   -2.7247    0.0990    0.0000 C   0  0  0  0  0  0  0  0  0  0  0  0
   -1.4738   -2.0311    0.0000 C   0  0  0  0  0  0  0  0  0  0  0  0
   -4.0871   -0.5697    0.0000 C   0  0  0  0  0  0  0  0  0  0  0  0
   -2.8362   -2.7123    0.0000 C   0  0  0  0  0  0  0  0  0  0  0  0
   -4.1986   -1.9197    0.0000 O   0  0  0  0  0  0  0  0  0  0  0  0
   -5.4495    0.2229    0.0000 C   0  0  0  0  0  0  0  0  0  0  0  0
   -3.6412   -3.8518    0.0000 C   0  0  0  0  0  0  0  0  0  0  0  0
   -2.1550   -3.8518    0.0000 C   0  0  0  0  0  0  0  0  0  0  0  0
   -5.5610    1.7958    0.0000 O   0  0  0  0  0  0  0  0  0  0  0  0
   -6.8119   -0.4458    0.0000 O   0  0  0  0  0  0  0  0  0  0  0  0
   -8.1742    0.3344    0.0000 C   0  0  0  0  0  0  0  0  0  0  0  0
   -9.5366   -0.3467    0.0000 C   0  0  0  0  0  0  0  0  0  0  0  0
  -10.8990    0.4458    0.0000 C   0  0  0  0  0  0  0  0  0  0  0  0
  -12.2614   -0.2229    0.0000 C   0  0  0  0  0  0  0  0  0  0  0  0
  1  2  2  0
  2  3  1  0
  2  4  1  0
  3  5  2  0
  4  6  1  0
  5  7  1  0
  5  8  1  0
  6  9  1  0
  6 10  1  0
  8 11  2  0
  8 12  1  0
 12 13  1  0
 13 14  1  0
 14 15  1  0
 15 16  1  0
  6  7  1  0
M  END
>  <Structure No>
287

>  <Molecule Name>
Butopyronoxyl

>  <PubChem CID>
10760

>  <SMILES>
CCCCOC(C(OC(C)(C)C1)=CC1=O)=O

>  <InChIKey>
OKIJSNGRQAOIGZ-UHFFFAOYSA-N

>  <Molecular Formula>
C12H18O4

>  <Target Organism>
Acari: Ixodidae

>  <Reference DOI>
10.1111/j.1365-2915.2003.00453.x.

>  <Activity Label>
1

>  <Repellency>
Active

>  <IUPAC>
butyl 2,2-dimethyl-4-oxo-3H-pyran-6-carboxylate

>  <Common name>
Butopyronoxyl

$$$$
Compound 288
     RDKit          2D

  0  0  0  0  0  0  0  0  0  0999 V3000
M  V30 BEGIN CTAB
M  V30 COUNTS 16 16 0 0 0
M  V30 BEGIN ATOM
M  V30 1 O 0.000000 0.000000 0.000000 0
M  V30 2 C -1.602200 0.088300 0.000000 0
M  V30 3 C -1.690500 -1.337300 0.000000 0
M  V30 4 C -1.690500 1.690500 0.000000 0
M  V30 5 C -3.204500 0.176600 0.000000 0
M  V30 6 C -0.479400 -2.056400 0.000000 0
M  V30 7 C -3.078300 -2.056400 0.000000 0
M  V30 8 C -0.479400 2.498000 0.000000 0
M  V30 9 C -0.567700 -3.482000 0.000000 0
M  V30 10 C -3.166600 -3.482000 0.000000 0
M  V30 11 C -0.567700 4.100200 0.000000 0
M  V30 12 C -1.955500 -4.201200 0.000000 0
M  V30 13 C 0.643400 4.907700 0.000000 0
M  V30 14 C -2.043800 -5.626800 0.000000 0
M  V30 15 C 0.555100 6.509900 0.000000 0
M  V30 16 C 1.854500 4.188500 0.000000 0
M  V30 END ATOM
M  V30 BEGIN BOND
M  V30 1 1 1 2
M  V30 2 1 2 3
M  V30 3 1 2 4
M  V30 4 1 2 5 CFG=1
M  V30 5 1 3 6
M  V30 6 1 3 7
M  V30 7 1 4 8
M  V30 8 1 6 9
M  V30 9 1 7 10
M  V30 10 1 8 11
M  V30 11 2 9 12
M  V30 12 2 11 13
M  V30 13 1 12 14
M  V30 14 1 13 15
M  V30 15 1 13 16
M  V30 16 1 10 12
M  V30 END BOND
M  V30 BEGIN COLLECTION
M  V30 MDLV30/STEABS ATOMS=(1 2)
M  V30 END COLLECTION
M  V30 END CTAB
M  END
>  <Structure No>
288

>  <Molecule Name>
(2S)-6-methyl-2-(4-methylcyclohex-3-en-1-yl)hept-5-en-2-ol

>  <PubChem CID>
6097621

>  <SMILES>
C[C@](CCC=C(C)C)(C1CC=C(C)CC1)O

>  <InChIKey>
RGZSQWQPBWRIAQ-LOACHALJSA-N

>  <Molecular Formula>
C15H26O

>  <Target Organism>
Aedes aegypti

>  <Reference DOI>
10.1038/s41598-022-24923-x

>  <Activity Label>
1

>  <Repellency>
Active

>  <IUPAC>
(2S)-6-methyl-2-(4-methylcyclohex-3-en-1-yl)hept-5-en-2-ol

>  <Common name>
(2S)-6-methyl-2-(4-methylcyclohex-3-en-1-yl)hept-5-en-2-ol

$$$$
Compound 289
     RDKit          2D

 16 16  0  0  0  0  0  0  0  0999 V2000
    0.0000    0.0000    0.0000 O   0  0  0  0  0  0  0  0  0  0  0  0
   -0.0361   -1.4688    0.0000 C   0  0  0  0  0  0  0  0  0  0  0  0
    1.2280   -2.2033    0.0000 O   0  0  0  0  0  0  0  0  0  0  0  0
   -1.3725   -2.2033    0.0000 C   0  0  0  0  0  0  0  0  0  0  0  0
    2.4922   -1.4327    0.0000 C   0  0  0  0  0  0  0  0  0  0  0  0
   -2.7090   -1.4327    0.0000 C   0  0  0  0  0  0  0  0  0  0  0  0
    3.7564   -2.1672    0.0000 C   0  0  0  0  0  0  0  0  0  0  0  0
   -4.0454   -2.1672    0.0000 C   0  0  0  0  0  0  0  0  0  0  0  0
   -4.2380   -3.6240    0.0000 O   0  0  0  0  0  0  0  0  0  0  0  0
   -5.4541   -1.5050    0.0000 O   0  0  0  0  0  0  0  0  0  0  0  0
   -2.8173   -2.9377    0.0000 C   0  0  0  0  0  0  0  0  0  0  0  0
   -5.7431   -3.9009    0.0000 C   0  0  0  0  0  0  0  0  0  0  0  0
   -6.4895   -2.5765    0.0000 C   0  0  0  0  0  0  0  0  0  0  0  0
   -6.4053   -5.2374    0.0000 C   0  0  0  0  0  0  0  0  0  0  0  0
   -7.9343   -5.3578    0.0000 O   0  0  0  0  0  0  0  0  0  0  0  0
   -8.5966   -6.6942    0.0000 C   0  0  0  0  0  0  0  0  0  0  0  0
  1  2  2  0
  2  3  1  0
  2  4  1  0
  3  5  1  0
  4  6  1  0
  5  7  1  0
  6  8  1  0
  8  9  1  0
  8 10  1  0
  8 11  1  0
  9 12  1  0
 10 13  1  0
 12 14  1  0
 14 15  1  0
 15 16  1  0
 12 13  1  0
M  END
>  <Structure No>
289

>  <Molecule Name>
Ethyl 3-(4-(methoxymethyl)-2-methyl-1,3-dioxolan-2-yl)propanoate

>  <PubChem CID>
245458

>  <SMILES>
CCOC(CCC1(C)OC(COC)CO1)=O

>  <InChIKey>
GBJCKNLHNSXPAM-UHFFFAOYSA-N

>  <Molecular Formula>
C11H20O5

>  <Target Organism>
Aedes aegypti

>  <Reference DOI>
10.3390/toxics11100837

>  <Activity Label>
1

>  <Repellency>
Active

>  <IUPAC>
ethyl 3-[4-(methoxymethyl)-2-methyl-1,3-dioxolan-2-yl]propanoate

>  <Common name>
Ethyl 3-(4-(methoxymethyl)-2-methyl-1,3-dioxolan-2-yl)propanoate

$$$$
Compound 290
     RDKit          2D

  0  0  0  0  0  0  0  0  0  0999 V3000
M  V30 BEGIN CTAB
M  V30 COUNTS 16 16 0 0 0
M  V30 BEGIN ATOM
M  V30 1 O 0.000000 0.000000 0.000000 0
M  V30 2 C -0.036500 -1.473200 0.000000 0
M  V30 3 O -1.375800 -2.215900 0.000000 0
M  V30 4 C 1.229700 -2.215900 0.000000 0
M  V30 5 C -2.715100 -1.436700 0.000000 0
M  V30 6 C 2.496000 -1.436700 0.000000 0
M  V30 7 C -2.751700 0.109500 0.000000 0
M  V30 8 C -4.054500 -2.179400 0.000000 0
M  V30 9 O 1.716700 -0.097400 0.000000 0
M  V30 10 C 3.762200 -2.179400 0.000000 0
M  V30 11 C 3.238700 -0.097400 0.000000 0
M  V30 12 C 3.725700 -3.652700 0.000000 0
M  V30 13 C 5.028500 -1.400200 0.000000 0
M  V30 14 C 4.992000 -4.395400 0.000000 0
M  V30 15 C 6.294800 -2.130700 0.000000 0
M  V30 16 C 6.258300 -3.616100 0.000000 0
M  V30 END ATOM
M  V30 BEGIN BOND
M  V30 1 2 1 2
M  V30 2 1 2 3
M  V30 3 1 2 4
M  V30 4 1 3 5
M  V30 5 1 4 6
M  V30 6 1 5 7
M  V30 7 1 5 8
M  V30 8 1 6 9
M  V30 9 1 6 10
M  V30 10 1 6 11 CFG=1
M  V30 11 2 10 12
M  V30 12 1 10 13
M  V30 13 1 12 14
M  V30 14 2 13 15
M  V30 15 2 14 16
M  V30 16 1 15 16
M  V30 END BOND
M  V30 BEGIN COLLECTION
M  V30 MDLV30/STERAC1 ATOMS=(1 6)
M  V30 END COLLECTION
M  V30 END CTAB
M  END
>  <Structure No>
290

>  <Molecule Name>
Isopropyl 3-hydroxy-3-phenylbutanoate

>  <PubChem CID>
24976045

>  <SMILES>
CC(C)OC(CC(C)(c1ccccc1)O)=O

>  <InChIKey>
PFZJVJFFPRNQJD-ZDUSSCGKSA-N

>  <Molecular Formula>
C13H18O3

>  <Target Organism>
Aedes aegypti

>  <Reference DOI>
10.3390/toxics11100837

>  <Activity Label>
1

>  <Repellency>
Active

>  <IUPAC>
propan-2-yl 3-hydroxy-3-phenylbutanoate

>  <Common name>
Isopropyl 3-hydroxy-3-phenylbutanoate

$$$$
Compound 291
     RDKit          2D

 16 16  0  0  0  0  0  0  0  0999 V2000
    0.0000    0.0000    0.0000 O   0  0  0  0  0  0  0  0  0  0  0  0
   -0.0364    1.5425    0.0000 C   0  0  0  0  0  0  0  0  0  0  0  0
    1.2267    2.3320    0.0000 O   0  0  0  0  0  0  0  0  0  0  0  0
   -1.3725    2.3320    0.0000 C   0  0  0  0  0  0  0  0  0  0  0  0
    2.4899    1.6033    0.0000 C   0  0  0  0  0  0  0  0  0  0  0  0
   -2.7086    1.6033    0.0000 C   0  0  0  0  0  0  0  0  0  0  0  0
    3.7531    2.3806    0.0000 C   0  0  0  0  0  0  0  0  0  0  0  0
   -1.4454    0.8623    0.0000 O   0  0  0  0  0  0  0  0  0  0  0  0
   -4.0447    2.3806    0.0000 C   0  0  0  0  0  0  0  0  0  0  0  0
   -2.7450    0.1336    0.0000 C   0  0  0  0  0  0  0  0  0  0  0  0
    5.0164    1.6518    0.0000 C   0  0  0  0  0  0  0  0  0  0  0  0
   -5.3807    1.6518    0.0000 C   0  0  0  0  0  0  0  0  0  0  0  0
   -4.0811   -0.5951    0.0000 C   0  0  0  0  0  0  0  0  0  0  0  0
    6.2796    2.4292    0.0000 C   0  0  0  0  0  0  0  0  0  0  0  0
    4.9799    0.1821    0.0000 C   0  0  0  0  0  0  0  0  0  0  0  0
   -5.4172    0.1821    0.0000 C   0  0  0  0  0  0  0  0  0  0  0  0
  1  2  2  0
  2  3  1  0
  2  4  1  0
  3  5  1  0
  4  6  1  0
  5  7  1  0
  6  8  1  0
  6  9  1  0
  6 10  1  0
  7 11  1  0
  9 12  1  0
 10 13  1  0
 11 14  1  0
 11 15  1  0
 12 16  1  0
 13 16  1  0
M  END
>  <Structure No>
291

>  <Molecule Name>
3-Methylbutyl 1-hydroxycyclohexaneacetate

>  <PubChem CID>
81376

>  <SMILES>
CC(C)CCOC(CC1(CCCCC1)O)=O

>  <InChIKey>
YPZJKRRAQSWQCI-UHFFFAOYSA-N

>  <Molecular Formula>
C13H24O3

>  <Target Organism>
Aedes aegypti

>  <Reference DOI>
10.3390/toxics11100837

>  <Activity Label>
1

>  <Repellency>
Active

>  <IUPAC>
3-methylbutyl 2-(1-hydroxycyclohexyl)acetate

>  <Common name>
3-Methylbutyl 1-hydroxycyclohexaneacetate

$$$$
Compound 292
     RDKit          2D

 16 16  0  0  0  0  0  0  0  0999 V2000
    0.0000    0.0000    0.0000 O   0  0  0  0  0  0  0  0  0  0  0  0
   -0.0364   -1.4683    0.0000 C   0  0  0  0  0  0  0  0  0  0  0  0
   -1.3712   -2.2086    0.0000 O   0  0  0  0  0  0  0  0  0  0  0  0
    1.2256   -2.2086    0.0000 C   0  0  0  0  0  0  0  0  0  0  0  0
   -2.7061   -1.4319    0.0000 C   0  0  0  0  0  0  0  0  0  0  0  0
    2.4877   -1.4319    0.0000 N   0  0  0  0  0  0  0  0  0  0  0  0
   -4.0410   -2.1722    0.0000 C   0  0  0  0  0  0  0  0  0  0  0  0
    3.7497   -2.1722    0.0000 C   0  0  0  0  0  0  0  0  0  0  0  0
   -5.3758   -1.3955    0.0000 C   0  0  0  0  0  0  0  0  0  0  0  0
    5.0118   -1.3955    0.0000 C   0  0  0  0  0  0  0  0  0  0  0  0
   -6.7107   -2.1357    0.0000 C   0  0  0  0  0  0  0  0  0  0  0  0
    6.2739   -2.1357    0.0000 C   0  0  0  0  0  0  0  0  0  0  0  0
    4.9754    0.1456    0.0000 C   0  0  0  0  0  0  0  0  0  0  0  0
    7.5359   -1.3591    0.0000 C   0  0  0  0  0  0  0  0  0  0  0  0
    6.2374    0.9222    0.0000 C   0  0  0  0  0  0  0  0  0  0  0  0
    7.4995    0.1820    0.0000 C   0  0  0  0  0  0  0  0  0  0  0  0
  1  2  2  0
  2  3  1  0
  2  4  1  0
  3  5  1  0
  4  6  1  0
  5  7  1  0
  6  8  1  0
  7  9  1  0
  8 10  1  0
  9 11  1  0
 10 12  2  0
 10 13  1  0
 12 14  1  0
 13 15  2  0
 14 16  2  0
 15 16  1  0
M  END
>  <Structure No>
292

>  <Molecule Name>
Butyl 2-(benzylamino)acetate

>  <PubChem CID>
53974441

>  <SMILES>
CCCCOC(CNCc1ccccc1)=O

>  <InChIKey>
JTXMFNLHSFROFU-UHFFFAOYSA-N

>  <Molecular Formula>
C13H19NO2

>  <Target Organism>
Aedes aegypti

>  <Reference DOI>
10.3390/toxics11100837

>  <Activity Label>
1

>  <Repellency>
Active

>  <IUPAC>
butyl 2-(benzylamino)acetate

>  <Common name>
Butyl 2-(benzylamino)acetate

$$$$
Compound 293
     RDKit          2D

 16 16  0  0  0  0  0  0  0  0999 V2000
    0.0000    0.0000    0.0000 O   0  0  0  0  0  0  0  0  0  0  0  0
   -0.0362    1.5359    0.0000 C   0  0  0  0  0  0  0  0  0  0  0  0
    1.2214    2.3099    0.0000 N   0  0  0  0  0  0  0  0  0  0  0  0
   -1.3666    2.3099    0.0000 C   0  0  0  0  0  0  0  0  0  0  0  0
    1.1852    3.8458    0.0000 C   0  0  0  0  0  0  0  0  0  0  0  0
    2.4792    1.5843    0.0000 C   0  0  0  0  0  0  0  0  0  0  0  0
   -2.6969    1.5843    0.0000 C   0  0  0  0  0  0  0  0  0  0  0  0
    2.4429    4.6198    0.0000 C   0  0  0  0  0  0  0  0  0  0  0  0
   -0.1451    4.6198    0.0000 C   0  0  0  0  0  0  0  0  0  0  0  0
    3.7370    2.3462    0.0000 C   0  0  0  0  0  0  0  0  0  0  0  0
    2.4066    6.1558    0.0000 C   0  0  0  0  0  0  0  0  0  0  0  0
   -0.1814    6.1558    0.0000 C   0  0  0  0  0  0  0  0  0  0  0  0
    4.9948    1.6205    0.0000 C   0  0  0  0  0  0  0  0  0  0  0  0
    1.0763    6.9177    0.0000 C   0  0  0  0  0  0  0  0  0  0  0  0
    6.2525    2.3946    0.0000 C   0  0  0  0  0  0  0  0  0  0  0  0
    7.5103    1.6689    0.0000 C   0  0  0  0  0  0  0  0  0  0  0  0
  1  2  2  0
  2  3  1  0
  2  4  1  0
  3  5  1  0
  3  6  1  0
  4  7  1  0
  5  8  2  0
  5  9  1  0
  6 10  1  0
  8 11  1  0
  9 12  2  0
 10 13  1  0
 11 14  2  0
 13 15  1  0
 15 16  1  0
 12 14  1  0
M  END
>  <Structure No>
293

>  <Molecule Name>
N-pentyl-N-phenylpropanamide

>  <PubChem CID>
347879

>  <SMILES>
CCCCCN(C(CC)=O)c1ccccc1

>  <InChIKey>
BSCFOWYEVQMVNW-UHFFFAOYSA-N

>  <Molecular Formula>
C14H21NO

>  <Target Organism>
Aedes aegypti

>  <Reference DOI>
10.3390/toxics11100837

>  <Activity Label>
1

>  <Repellency>
Active

>  <IUPAC>
N-pentyl-N-phenylpropanamide

>  <Common name>
N-pentyl-N-phenylpropanamide

$$$$
Compound 294
     RDKit          2D

 16 16  0  0  0  0  0  0  0  0999 V2000
    0.0000    0.0000    0.0000 O   0  0  0  0  0  0  0  0  0  0  0  0
    1.1602    0.8071    0.0000 C   0  0  0  0  0  0  0  0  0  0  0  0
    2.3204    0.1134    0.0000 O   0  0  0  0  0  0  0  0  0  0  0  0
    1.0467    2.4086    0.0000 N   0  0  0  0  0  0  0  0  0  0  0  0
    2.2069   -1.2610    0.0000 C   0  0  0  0  0  0  0  0  0  0  0  0
   -0.3404    3.2284    0.0000 C   0  0  0  0  0  0  0  0  0  0  0  0
    2.2069    3.2284    0.0000 C   0  0  0  0  0  0  0  0  0  0  0  0
    3.3671   -1.9546    0.0000 C   0  0  0  0  0  0  0  0  0  0  0  0
    0.8197   -1.9546    0.0000 C   0  0  0  0  0  0  0  0  0  0  0  0
   -0.4539    4.8299    0.0000 C   0  0  0  0  0  0  0  0  0  0  0  0
   -1.7277    2.5348    0.0000 C   0  0  0  0  0  0  0  0  0  0  0  0
    2.0934    4.8299    0.0000 C   0  0  0  0  0  0  0  0  0  0  0  0
    3.2536   -3.3292    0.0000 C   0  0  0  0  0  0  0  0  0  0  0  0
    0.7062    5.6370    0.0000 C   0  0  0  0  0  0  0  0  0  0  0  0
   -3.1149    3.3419    0.0000 C   0  0  0  0  0  0  0  0  0  0  0  0
   -4.5021    2.6483    0.0000 O   0  0  0  0  0  0  0  0  0  0  0  0
  1  2  2  0
  2  3  1  0
  2  4  1  0
  3  5  1  0
  4  6  1  0
  4  7  1  0
  5  8  1  0
  5  9  1  0
  6 10  1  0
  6 11  1  0
  7 12  1  0
  8 13  1  0
 10 14  1  0
 11 15  1  0
 15 16  1  0
 12 14  1  0
M  END
>  <Structure No>
294

>  <Molecule Name>
Icaridin

>  <PubChem CID>
125098

>  <SMILES>
CCC(C)OC(N1C(CCO)CCCC1)=O

>  <InChIKey>
QLHULAHOXSSASE-UHFFFAOYSA-N

>  <Molecular Formula>
C12H23NO3

>  <Target Organism>
Aedes albopictus

>  <Reference DOI>
10.1021/acs.jafc.2c05537

>  <Activity Label>
1

>  <Repellency>
Active

>  <IUPAC>
butan-2-yl 2-(2-hydroxyethyl)piperidine-1-carboxylate

>  <Common name>
Icaridin

$$$$
Compound 295
     RDKit          2D

  0  0  0  0  0  0  0  0  0  0999 V3000
M  V30 BEGIN CTAB
M  V30 COUNTS 16 18 0 0 0
M  V30 BEGIN ATOM
M  V30 1 O 0.000000 0.000000 0.000000 0
M  V30 2 C -0.990100 -1.109400 0.000000 0
M  V30 3 C -2.505200 -0.799200 0.000000 0
M  V30 4 C -0.512900 -2.576800 0.000000 0
M  V30 5 C -3.519200 -1.968400 0.000000 0
M  V30 6 C -1.550800 -3.722000 0.000000 0
M  V30 7 C -4.998500 -1.968400 0.000000 0
M  V30 8 C -3.065900 -3.376100 0.000000 0
M  V30 9 C -1.109400 -5.141700 0.000000 0
M  V30 10 O -5.869400 -0.763500 0.000000 0
M  V30 11 C -5.451800 -3.376100 0.000000 0
M  V30 12 C -4.270800 -4.246900 0.000000 0
M  V30 13 C -2.612600 -4.783800 0.000000 0
M  V30 14 C -5.606900 -4.855300 0.000000 0
M  V30 15 C -7.086200 -4.700300 0.000000 0
M  V30 16 C -4.998500 -6.215300 0.000000 0
M  V30 END ATOM
M  V30 BEGIN BOND
M  V30 1 2 1 2
M  V30 2 1 2 3
M  V30 3 1 2 4
M  V30 4 2 3 5
M  V30 5 1 4 6
M  V30 6 1 5 7
M  V30 7 1 5 8
M  V30 8 1 6 9 CFG=1
M  V30 9 2 7 10
M  V30 10 1 11 7
M  V30 11 1 8 12
M  V30 12 1 8 13 CFG=1
M  V30 13 1 11 14 CFG=3
M  V30 14 1 14 15
M  V30 15 1 14 16
M  V30 16 1 6 8
M  V30 17 1 11 12
M  V30 18 1 12 14 CFG=3
M  V30 END BOND
M  V30 BEGIN COLLECTION
M  V30 MDLV30/STEABS ATOMS=(4 6 8 11 12)
M  V30 END COLLECTION
M  V30 END CTAB
M  END
>  <Structure No>
295

>  <Molecule Name>
(1aS,1bR,2R,6aR)-1,1,1b,2-tetramethyl-1a,2,3,6a-tetrahydrocyclopropa[a]indene-4,6-dione

>  <PubChem CID>
71583464

>  <SMILES>


>  <InChIKey>
JFKBBEXHGRBITG-KGGBIUIESA-N

>  <Molecular Formula>
C14H18O2

>  <Target Organism>
Aedes aegypti

>  <Reference DOI>
10.1021/acsomega.8b03652

>  <Activity Label>
1

>  <Repellency>
Active

>  <IUPAC>
(1aS,1bR,2R,6aR)-1,1,1b,2-tetramethyl-1a,2,3,6a-tetrahydrocyclopropa[a]indene-4,6-dione

>  <Common name>
(1aS,1bR,2R,6aR)-1,1,1b,2-tetramethyl-1a,2,3,6a-tetrahydrocyclopropa[a]indene-4,6-dione

$$$$
Compound 296
     RDKit          2D

 16 18  0  0  0  0  0  0  0  0999 V2000
    0.0000    0.0000    0.0000 O   0  0  0  0  0  0  0  0  0  0  0  0
    1.1883    0.7964    0.0000 C   0  0  0  0  0  0  0  0  0  0  0  0
    1.1377    2.3892    0.0000 C   0  0  0  0  0  0  0  0  0  0  0  0
    2.4145    0.0758    0.0000 C   0  0  0  0  0  0  0  0  0  0  0  0
    2.3134    3.1983    0.0000 C   0  0  0  0  0  0  0  0  0  0  0  0
   -0.1896    3.1983    0.0000 C   0  0  0  0  0  0  0  0  0  0  0  0
    3.6407    0.8849    0.0000 C   0  0  0  0  0  0  0  0  0  0  0  0
    3.5522    2.5030    0.0000 C   0  0  0  0  0  0  0  0  0  0  0  0
    0.7079    3.5522    0.0000 C   0  0  0  0  0  0  0  0  0  0  0  0
    2.2375    4.7279    0.0000 C   0  0  0  0  0  0  0  0  0  0  0  0
   -0.2654    4.7279    0.0000 C   0  0  0  0  0  0  0  0  0  0  0  0
   -1.7066    3.4385    0.0000 C   0  0  0  0  0  0  0  0  0  0  0  0
   -0.8849    1.9468    0.0000 C   0  0  0  0  0  0  0  0  0  0  0  0
    4.9302    2.5915    0.0000 C   0  0  0  0  0  0  0  0  0  0  0  0
    4.2222    3.8430    0.0000 C   0  0  0  0  0  0  0  0  0  0  0  0
    0.9101    5.5370    0.0000 C   0  0  0  0  0  0  0  0  0  0  0  0
  1  2  1  0
  2  3  1  0
  2  4  1  0
  3  5  1  0
  3  6  1  0
  4  7  1  0
  5  8  1  0
  5  9  1  0
  5 10  1  0
  6 11  1  0
  6 12  1  0
  6 13  1  0
  8 14  1  0
  8 15  1  0
 10 16  1  0
  7  8  1  0
  9 11  1  0
 11 16  1  0
M  END
>  <Structure No>
296

>  <Molecule Name>
Isolongifolan-8-ol

>  <PubChem CID>
535389

>  <SMILES>
CC(C)(C(CC1)C2)C3C12C(C)(C)CCC3O

>  <InChIKey>
VJCRIDPUJYUCNH-UHFFFAOYSA-N

>  <Molecular Formula>
C15H26O

>  <Target Organism>
Anopheles stephensi Liston; Aedes aegypti

>  <Reference DOI>
10.1603/033.046.0113

>  <Activity Label>
1

>  <Repellency>
Active

>  <IUPAC>
2,2,8,8-tetramethyl-octahydro-1H-2,4a-methanonapthalen-10-ol

>  <Common name>
Isolongifolan-8-ol

$$$$
Compound 297
     RDKit          2D

  0  0  0  0  0  0  0  0  0  0999 V3000
M  V30 BEGIN CTAB
M  V30 COUNTS 16 18 0 0 0
M  V30 BEGIN ATOM
M  V30 1 O 0.000000 0.000000 0.000000 0
M  V30 2 C -1.341800 -0.652100 0.000000 0
M  V30 3 C -2.922000 -0.539200 0.000000 0
M  V30 4 C -0.501600 -1.705500 0.000000 0
M  V30 5 C -1.555000 0.928000 0.000000 0
M  V30 6 C -3.988000 -1.592600 0.000000 0
M  V30 7 C -2.106800 -1.906200 0.000000 0
M  V30 8 C -0.915400 -3.022300 0.000000 0
M  V30 9 C -3.799800 -2.909400 0.000000 0
M  V30 10 C -5.104100 -0.351100 0.000000 0
M  V30 11 C -5.455200 -2.006500 0.000000 0
M  V30 12 C -2.370200 -3.498900 0.000000 0
M  V30 13 C -4.953600 -3.887600 0.000000 0
M  V30 14 C -2.671200 -4.828200 0.000000 0
M  V30 15 C -4.426900 -5.066500 0.000000 0
M  V30 16 C -1.693000 -5.768800 0.000000 0
M  V30 END ATOM
M  V30 BEGIN BOND
M  V30 1 1 2 1
M  V30 2 1 2 3
M  V30 3 1 2 4
M  V30 4 1 2 5 CFG=1
M  V30 5 1 3 6 CFG=3
M  V30 6 1 3 7
M  V30 7 1 4 8
M  V30 8 1 6 9
M  V30 9 1 6 10
M  V30 10 1 6 11
M  V30 11 1 12 7
M  V30 12 1 9 13 CFG=1
M  V30 13 1 12 14
M  V30 14 1 13 15
M  V30 15 1 14 16 CFG=3
M  V30 16 1 12 8 CFG=3
M  V30 17 1 9 12
M  V30 18 1 14 15
M  V30 END BOND
M  V30 BEGIN COLLECTION
M  V30 MDLV30/STEABS ATOMS=(5 2 3 9 12 14)
M  V30 END COLLECTION
M  V30 END CTAB
M  END
>  <Structure No>
297

>  <Molecule Name>
Cedrol

>  <PubChem CID>
65575

>  <SMILES>
C[C@H](CC1)[C@@](C2)(CC3)[C@@H]1C(C)(C)[C@@H]2[C@]3(C)O

>  <InChIKey>
SVURIXNDRWRAFU-OGMFBOKVSA-N

>  <Molecular Formula>
C15H26O

>  <Target Organism>
Anopheles spp.

>  <Reference DOI>
10.1186/s13071-017-2122-8

>  <Activity Label>
1

>  <Repellency>
Active

>  <IUPAC>
(1S,2R,5S,7R,8R)-2,6,6,8-tetramethyltricyclo[5.3.1.01,5]undecan-8-ol

>  <Common name>
Cedrol

$$$$
Compound 298
     RDKit          2D

 16 17  0  0  0  0  0  0  0  0999 V2000
    0.0000    0.0000    0.0000 O   0  0  0  0  0  0  0  0  0  0  0  0
   -0.0365    1.5466    0.0000 C   0  0  0  0  0  0  0  0  0  0  0  0
    1.2299    2.3259    0.0000 O   0  0  0  0  0  0  0  0  0  0  0  0
   -1.3761    2.3259    0.0000 C   0  0  0  0  0  0  0  0  0  0  0  0
    2.4964    1.5831    0.0000 C   0  0  0  0  0  0  0  0  0  0  0  0
   -2.7156    1.5831    0.0000 C   0  0  0  0  0  0  0  0  0  0  0  0
    2.4599    0.1096    0.0000 C   0  0  0  0  0  0  0  0  0  0  0  0
    3.7630    2.3625    0.0000 C   0  0  0  0  0  0  0  0  0  0  0  0
   -4.1283    2.2529    0.0000 O   0  0  0  0  0  0  0  0  0  0  0  0
   -2.9105    0.1217    0.0000 O   0  0  0  0  0  0  0  0  0  0  0  0
   -1.4857    0.8037    0.0000 C   0  0  0  0  0  0  0  0  0  0  0  0
    3.7264   -0.6332    0.0000 C   0  0  0  0  0  0  0  0  0  0  0  0
    5.0295    1.6196    0.0000 C   0  0  0  0  0  0  0  0  0  0  0  0
   -5.1634    1.1812    0.0000 C   0  0  0  0  0  0  0  0  0  0  0  0
   -4.4206   -0.1583    0.0000 C   0  0  0  0  0  0  0  0  0  0  0  0
    4.9929    0.1339    0.0000 C   0  0  0  0  0  0  0  0  0  0  0  0
  1  2  2  0
  2  3  1  0
  2  4  1  0
  3  5  1  0
  4  6  1  0
  5  7  1  0
  5  8  1  0
  6  9  1  0
  6 10  1  0
  6 11  1  0
  7 12  1  0
  8 13  1  0
  9 14  1  0
 10 15  1  0
 12 16  1  0
 13 16  1  0
 14 15  1  0
M  END
>  <Structure No>
298

>  <Molecule Name>
2-Methyl-1,3-dioxolane-2-acetic acid, cyclohexyl ester

>  <PubChem CID>
Not found

>  <SMILES>
CC1(CC(OC2CCCCC2)=O)OCCO1

>  <InChIKey>
RCEPTYPDPKFZAR-UHFFFAOYSA-N

>  <Molecular Formula>
C12H20O4

>  <Target Organism>
Aedes aegypti

>  <Reference DOI>
10.3390/toxics11100837

>  <Activity Label>
1

>  <Repellency>
Active

>  <IUPAC>


>  <Common name>
2-Methyl-1,3-dioxolane-2-acetic acid, cyclohexyl ester

$$$$
Compound 299
     RDKit          2D

  0  0  0  0  0  0  0  0  0  0999 V3000
M  V30 BEGIN CTAB
M  V30 COUNTS 16 17 0 0 0
M  V30 BEGIN ATOM
M  V30 1 O 0.000000 0.000000 0.000000 0
M  V30 2 C -0.036100 1.529500 0.000000 0
M  V30 3 O -1.360900 2.300300 0.000000 0
M  V30 4 C 1.216400 2.300300 0.000000 0
M  V30 5 C -2.685700 1.577700 0.000000 0
M  V30 6 C 2.468900 1.577700 0.000000 0
M  V30 7 C -4.010600 2.348500 0.000000 0
M  V30 8 C -2.721900 0.120400 0.000000 0
M  V30 9 C 3.721500 2.348500 0.000000 0
M  V30 10 C -5.335400 1.625900 0.000000 0
M  V30 11 C -4.046700 -0.602100 0.000000 0
M  V30 12 C -5.371500 0.168600 0.000000 0
M  V30 13 C -6.660200 2.396700 0.000000 0
M  V30 14 C -6.696300 -0.554000 0.000000 0
M  V30 15 C -7.985000 1.674000 0.000000 0
M  V30 16 C -8.021200 0.216700 0.000000 0
M  V30 END ATOM
M  V30 BEGIN BOND
M  V30 1 2 1 2
M  V30 2 1 2 3
M  V30 3 1 2 4
M  V30 4 1 5 3 CFG=1
M  V30 5 1 4 6
M  V30 6 1 5 7
M  V30 7 1 5 8
M  V30 8 1 6 9
M  V30 9 1 7 10
M  V30 10 1 8 11
M  V30 11 2 10 12
M  V30 12 1 10 13
M  V30 13 1 12 14
M  V30 14 2 13 15
M  V30 15 2 14 16
M  V30 16 1 11 12
M  V30 17 1 15 16
M  V30 END BOND
M  V30 BEGIN COLLECTION
M  V30 MDLV30/STERAC1 ATOMS=(1 5)
M  V30 END COLLECTION
M  V30 END CTAB
M  END
>  <Structure No>
299

>  <Molecule Name>
1,2,3,4-Tetrahydronaphthalen-2-yl butanoate

>  <PubChem CID>
250122

>  <SMILES>
CCCC(OC(CC1)Cc2c1cccc2)=O

>  <InChIKey>
SKWRQMBTIMSKGJ-ZDUSSCGKSA-N

>  <Molecular Formula>
C14H18O2

>  <Target Organism>
Aedes aegypti

>  <Reference DOI>
10.3390/toxics11100837

>  <Activity Label>
1

>  <Repellency>
Active

>  <IUPAC>
1,2,3,4-tetrahydronaphthalen-2-yl butanoate

>  <Common name>
1,2,3,4-Tetrahydronaphthalen-2-yl butanoate

$$$$
Compound 300
     RDKit          2D

 16 17  0  0  0  0  0  0  0  0999 V2000
    0.0000    0.0000    0.0000 O   0  0  0  0  0  0  0  0  0  0  0  0
   -1.3488    0.7847    0.0000 C   0  0  0  0  0  0  0  0  0  0  0  0
   -2.6976    0.1226    0.0000 O   0  0  0  0  0  0  0  0  0  0  0  0
   -1.4591    2.3420    0.0000 C   0  0  0  0  0  0  0  0  0  0  0  0
   -4.0464    0.9073    0.0000 C   0  0  0  0  0  0  0  0  0  0  0  0
   -0.3310    3.1268    0.0000 C   0  0  0  0  0  0  0  0  0  0  0  0
   -2.8080    3.1268    0.0000 C   0  0  0  0  0  0  0  0  0  0  0  0
   -5.3952    0.2452    0.0000 C   0  0  0  0  0  0  0  0  0  0  0  0
   -0.4414    4.6840    0.0000 C   0  0  0  0  0  0  0  0  0  0  0  0
   -2.9183    4.6840    0.0000 C   0  0  0  0  0  0  0  0  0  0  0  0
   -6.7441    1.0422    0.0000 C   0  0  0  0  0  0  0  0  0  0  0  0
   -5.5056   -1.0913    0.0000 C   0  0  0  0  0  0  0  0  0  0  0  0
   -1.7902    5.4688    0.0000 C   0  0  0  0  0  0  0  0  0  0  0  0
   -8.0929    0.3801    0.0000 C   0  0  0  0  0  0  0  0  0  0  0  0
   -6.8544   -1.7534    0.0000 C   0  0  0  0  0  0  0  0  0  0  0  0
   -8.2032   -0.9564    0.0000 C   0  0  0  0  0  0  0  0  0  0  0  0
  1  2  2  0
  2  3  1  0
  2  4  1  0
  3  5  1  0
  4  6  2  0
  4  7  1  0
  5  8  1  0
  6  9  1  0
  7 10  2  0
  8 11  2  0
  8 12  1  0
  9 13  2  0
 11 14  1  0
 12 15  2  0
 14 16  2  0
 10 13  1  0
 15 16  1  0
M  END
>  <Structure No>
300

>  <Molecule Name>
Benzyl Benzoate

>  <PubChem CID>
2345

>  <SMILES>
O=C(c1ccccc1)OCc1ccccc1

>  <InChIKey>
SESFRYSPDFLNCH-UHFFFAOYSA-N

>  <Molecular Formula>
C14H12O2

>  <Target Organism>
Tribolium castaneum

>  <Reference DOI>
10.1111/j.1398-9995.1996.tb04581.x; 10.3390/molecules28237731

>  <Activity Label>
1

>  <Repellency>
Active

>  <IUPAC>
benzyl benzoate

>  <Common name>
Benzyl Benzoate

$$$$
Compound 301
     RDKit          2D

  0  0  0  0  0  0  0  0  0  0999 V3000
M  V30 BEGIN CTAB
M  V30 COUNTS 16 17 0 0 0
M  V30 BEGIN ATOM
M  V30 1 O 0.000000 0.000000 0.000000 0
M  V30 2 C 0.750100 1.309700 0.000000 0
M  V30 3 C 2.036100 2.059900 0.000000 0
M  V30 4 C -0.559600 2.059900 0.000000 0
M  V30 5 C 1.500300 0.023800 0.000000 0
M  V30 6 C 3.322100 1.309700 0.000000 0
M  V30 7 C 2.024200 3.572100 0.000000 0
M  V30 8 C -1.869400 1.309700 0.000000 0
M  V30 9 C 4.608100 2.059900 0.000000 0
M  V30 10 C 3.310200 4.322300 0.000000 0
M  V30 11 C -3.179200 2.059900 0.000000 0
M  V30 12 C -1.881300 -0.178600 0.000000 0
M  V30 13 C 4.596100 3.572100 0.000000 0
M  V30 14 C -4.489000 1.309700 0.000000 0
M  V30 15 C -3.191100 -0.928700 0.000000 0
M  V30 16 C -4.500900 -0.178600 0.000000 0
M  V30 END ATOM
M  V30 BEGIN BOND
M  V30 1 1 2 1
M  V30 2 1 2 3
M  V30 3 1 2 4
M  V30 4 1 2 5 CFG=3
M  V30 5 2 3 6
M  V30 6 1 3 7
M  V30 7 1 4 8
M  V30 8 1 6 9
M  V30 9 2 7 10
M  V30 10 2 8 11
M  V30 11 1 8 12
M  V30 12 2 9 13
M  V30 13 1 11 14
M  V30 14 2 12 15
M  V30 15 2 14 16
M  V30 16 1 10 13
M  V30 17 1 15 16
M  V30 END BOND
M  V30 BEGIN COLLECTION
M  V30 MDLV30/STERAC1 ATOMS=(1 2)
M  V30 END COLLECTION
M  V30 END CTAB
M  END
>  <Structure No>
301

>  <Molecule Name>
1,2-Diphenyl-2-propanol

>  <PubChem CID>
95356

>  <SMILES>
CC(Cc1ccccc1)(c1ccccc1)O

>  <InChIKey>
QRKNKDBJZVZQNE-UHFFFAOYSA-N

>  <Molecular Formula>
C15H16O

>  <Target Organism>
Aedes albopictus

>  <Reference DOI>
10.1002/cmdc.202200271

>  <Activity Label>
1

>  <Repellency>
Active

>  <IUPAC>
1,2-diphenylpropan-2-ol

>  <Common name>
1,2-Diphenyl-2-propanol

$$$$
Compound 302
     RDKit          2D

  0  0  0  0  0  0  0  0  0  0999 V3000
M  V30 BEGIN CTAB
M  V30 COUNTS 16 17 0 0 0
M  V30 BEGIN ATOM
M  V30 1 O 0.000000 0.000000 0.000000 0
M  V30 2 C -1.274900 -0.740600 0.000000 0
M  V30 3 C -2.610600 0.024200 0.000000 0
M  V30 4 C -1.274900 -2.282700 0.000000 0
M  V30 5 C -3.934100 -0.764900 0.000000 0
M  V30 6 C -2.610600 -3.047700 0.000000 0
M  V30 7 C -3.934100 -2.246300 0.000000 0
M  V30 8 C -5.221200 -0.024200 0.000000 0
M  V30 9 C -2.622700 -4.529000 0.000000 0
M  V30 10 C -5.221200 -2.987000 0.000000 0
M  V30 11 C -3.934100 -3.727600 0.000000 0
M  V30 12 C -6.508200 -0.764900 0.000000 0
M  V30 13 C -6.508200 -2.246300 0.000000 0
M  V30 14 C -7.795300 -2.987000 0.000000 0
M  V30 15 C -7.795300 -4.468300 0.000000 0
M  V30 16 C -9.082400 -2.246300 0.000000 0
M  V30 END ATOM
M  V30 BEGIN BOND
M  V30 1 2 1 2
M  V30 2 1 2 3
M  V30 3 1 2 4
M  V30 4 2 3 5
M  V30 5 1 4 6
M  V30 6 1 5 7
M  V30 7 1 5 8
M  V30 8 1 6 9 CFG=1
M  V30 9 1 7 10
M  V30 10 1 7 11 CFG=1
M  V30 11 1 8 12
M  V30 12 1 10 13
M  V30 13 1 13 14 CFG=3
M  V30 14 2 14 15
M  V30 15 1 14 16
M  V30 16 1 6 7
M  V30 17 1 12 13
M  V30 END BOND
M  V30 BEGIN COLLECTION
M  V30 MDLV30/STEABS ATOMS=(3 6 7 13)
M  V30 END COLLECTION
M  V30 END CTAB
M  END
>  <Structure No>
302

>  <Molecule Name>
(4R,4aS,6R)-4,4a-dimethyl-6-prop-1-en-2-yl-3,4,5,6,7,8-hexahydronaphthalen-2-one

>  <PubChem CID>
1268142

>  <SMILES>


>  <InChIKey>
WTOYNNBCKUYIKC-JMSVASOKSA-N

>  <Molecular Formula>
C15H22O

>  <Target Organism>
Aedes aegypti

>  <Reference DOI>
10.1021/acsomega.8b03652

>  <Activity Label>
1

>  <Repellency>
Active

>  <IUPAC>
(4R,4aS,6R)-4,4a-dimethyl-6-prop-1-en-2-yl-3,4,5,6,7,8-hexahydronaphthalen-2-one

>  <Common name>
(4R,4aS,6R)-4,4a-dimethyl-6-prop-1-en-2-yl-3,4,5,6,7,8-hexahydronaphthalen-2-one

$$$$
Compound 303
     RDKit          2D

  0  0  0  0  0  0  0  0  0  0999 V3000
M  V30 BEGIN CTAB
M  V30 COUNTS 16 17 0 0 0
M  V30 BEGIN ATOM
M  V30 1 O 0.000000 0.000000 0.000000 0
M  V30 2 C 0.926800 -1.152500 0.000000 0
M  V30 3 C 1.853600 -2.305100 0.000000 0
M  V30 4 C -0.320800 -2.079400 0.000000 0
M  V30 5 C 2.079400 -0.130700 0.000000 0
M  V30 6 C 3.303300 -1.913000 0.000000 0
M  V30 7 C 1.152500 -3.647900 0.000000 0
M  V30 8 C 4.467700 -2.828000 0.000000 0
M  V30 9 C 1.770400 -4.978700 0.000000 0
M  V30 10 C 4.432100 -4.313300 0.000000 0
M  V30 11 C 5.869900 -2.317000 0.000000 0
M  V30 12 C 3.220100 -5.263900 0.000000 0
M  V30 13 C 5.834200 -4.717300 0.000000 0
M  V30 14 C 6.737300 -3.505300 0.000000 0
M  V30 15 C 6.285700 -0.808000 0.000000 0
M  V30 16 C 3.517100 -6.713500 0.000000 0
M  V30 END ATOM
M  V30 BEGIN BOND
M  V30 1 1 1 2
M  V30 2 1 3 2 CFG=1
M  V30 3 1 2 4
M  V30 4 1 2 5
M  V30 5 1 3 6
M  V30 6 1 3 7
M  V30 7 1 6 8
M  V30 8 1 7 9
M  V30 9 2 8 10
M  V30 10 1 8 11
M  V30 11 1 9 12
M  V30 12 1 10 13
M  V30 13 1 11 14
M  V30 14 1 11 15 CFG=1
M  V30 15 1 12 16 CFG=1
M  V30 16 1 10 12
M  V30 17 1 13 14
M  V30 END BOND
M  V30 BEGIN COLLECTION
M  V30 MDLV30/STEABS ATOMS=(3 3 11 12)
M  V30 END COLLECTION
M  V30 END CTAB
M  END
>  <Structure No>
303

>  <Molecule Name>
Guaiol

>  <PubChem CID>
227829

>  <SMILES>
C[C@@H](CC1)C(C2)=C1[C@@H](C)CC[C@H]2C(C)(C)O

>  <InChIKey>
TWVJWDMOZJXUID-SDDRHHMPSA-N

>  <Molecular Formula>
C15H26O

>  <Target Organism>
Aedes albopictus

>  <Reference DOI>
10.3390/molecules26113072

>  <Activity Label>
1

>  <Repellency>
Active

>  <IUPAC>
2-[(3S,5R,8S)-3,8-dimethyl-1,2,3,4,5,6,7,8-octahydroazulen-5-yl]propan-2-ol

>  <Common name>
Guaiol

$$$$
Compound 304
     RDKit          2D

 16 17  0  0  0  0  0  0  0  0999 V2000
    0.0000    0.0000    0.0000 O   0  0  0  0  0  0  0  0  0  0  0  0
   -0.0365    1.5466    0.0000 C   0  0  0  0  0  0  0  0  0  0  0  0
    1.2299    2.3259    0.0000 O   0  0  0  0  0  0  0  0  0  0  0  0
   -1.3761    2.3259    0.0000 C   0  0  0  0  0  0  0  0  0  0  0  0
    2.4964    1.5831    0.0000 C   0  0  0  0  0  0  0  0  0  0  0  0
   -2.7156    1.5831    0.0000 C   0  0  0  0  0  0  0  0  0  0  0  0
    2.4599    0.1096    0.0000 C   0  0  0  0  0  0  0  0  0  0  0  0
    3.7630    2.3625    0.0000 C   0  0  0  0  0  0  0  0  0  0  0  0
   -1.4857    0.8037    0.0000 O   0  0  0  0  0  0  0  0  0  0  0  0
   -4.1283    2.2529    0.0000 C   0  0  0  0  0  0  0  0  0  0  0  0
   -2.9105    0.1217    0.0000 C   0  0  0  0  0  0  0  0  0  0  0  0
    3.7264   -0.6332    0.0000 C   0  0  0  0  0  0  0  0  0  0  0  0
    5.0295    1.6196    0.0000 C   0  0  0  0  0  0  0  0  0  0  0  0
   -5.1634    1.1812    0.0000 C   0  0  0  0  0  0  0  0  0  0  0  0
   -4.4206   -0.1583    0.0000 C   0  0  0  0  0  0  0  0  0  0  0  0
    4.9929    0.1339    0.0000 C   0  0  0  0  0  0  0  0  0  0  0  0
  1  2  2  0
  2  3  1  0
  2  4  1  0
  3  5  1  0
  4  6  1  0
  5  7  1  0
  5  8  1  0
  6  9  1  0
  6 10  1  0
  6 11  1  0
  7 12  1  0
  8 13  1  0
 10 14  1  0
 11 15  1  0
 12 16  1  0
 13 16  1  0
 14 15  1  0
M  END
>  <Structure No>
304

>  <Molecule Name>
Cyclohexyl 2-(1-hydroxycyclopentyl)acetate

>  <PubChem CID>
245397

>  <SMILES>
OC1(CC(OC2CCCCC2)=O)CCCC1

>  <InChIKey>
MUBMXBBIFOGBOC-UHFFFAOYSA-N

>  <Molecular Formula>
C13H22O3

>  <Target Organism>
Aedes aegypti

>  <Reference DOI>
10.3390/toxics11100837

>  <Activity Label>
1

>  <Repellency>
Active

>  <IUPAC>
cyclohexyl 2-(1-hydroxycyclopentyl)acetate

>  <Common name>
Cyclohexyl 2-(1-hydroxycyclopentyl)acetate

$$$$
Compound 305
     RDKit          2D

 16 17  0  0  0  0  0  0  0  0999 V2000
    0.0000    0.0000    0.0000 O   0  0  0  0  0  0  0  0  0  0  0  0
   -0.0364    1.5441    0.0000 C   0  0  0  0  0  0  0  0  0  0  0  0
    1.2280    2.3223    0.0000 O   0  0  0  0  0  0  0  0  0  0  0  0
   -1.3739    2.3223    0.0000 C   0  0  0  0  0  0  0  0  0  0  0  0
    2.4925    1.5928    0.0000 C   0  0  0  0  0  0  0  0  0  0  0  0
   -2.7114    1.5928    0.0000 C   0  0  0  0  0  0  0  0  0  0  0  0
    2.6141    0.1337    0.0000 C   0  0  0  0  0  0  0  0  0  0  0  0
    3.8300    2.2615    0.0000 C   0  0  0  0  0  0  0  0  0  0  0  0
   -1.4469    0.8511    0.0000 O   0  0  0  0  0  0  0  0  0  0  0  0
   -4.0489    2.3710    0.0000 C   0  0  0  0  0  0  0  0  0  0  0  0
   -2.7479    0.1215    0.0000 C   0  0  0  0  0  0  0  0  0  0  0  0
    4.0489   -0.1459    0.0000 C   0  0  0  0  0  0  0  0  0  0  0  0
    4.7906    1.1915    0.0000 C   0  0  0  0  0  0  0  0  0  0  0  0
   -5.3864    1.6414    0.0000 C   0  0  0  0  0  0  0  0  0  0  0  0
   -4.0854   -0.6079    0.0000 C   0  0  0  0  0  0  0  0  0  0  0  0
   -5.4229    0.1702    0.0000 C   0  0  0  0  0  0  0  0  0  0  0  0
  1  2  2  0
  2  3  1  0
  2  4  1  0
  3  5  1  0
  4  6  1  0
  5  7  1  0
  5  8  1  0
  6  9  1  0
  6 10  1  0
  6 11  1  0
  7 12  1  0
  8 13  1  0
 10 14  1  0
 11 15  1  0
 14 16  1  0
 12 13  1  0
 15 16  1  0
M  END
>  <Structure No>
305

>  <Molecule Name>
Cyclopentyl (1-hydroxycyclohexyl)acetate

>  <PubChem CID>
245396

>  <SMILES>
OC1(CC(OC2CCCC2)=O)CCCCC1

>  <InChIKey>
RABXJVNSGMBEBF-UHFFFAOYSA-N

>  <Molecular Formula>
C13H22O3

>  <Target Organism>
Aedes aegypti

>  <Reference DOI>
10.3390/toxics11100837

>  <Activity Label>
1

>  <Repellency>
Active

>  <IUPAC>
cyclopentyl 2-(1-hydroxycyclohexyl)acetate

>  <Common name>
Cyclopentyl (1-hydroxycyclohexyl)acetate

$$$$
Compound 306
     RDKit          2D

 16 17  0  0  0  0  0  0  0  0999 V2000
    0.0000    0.0000    0.0000 O   0  0  0  0  0  0  0  0  0  0  0  0
   -1.3411   -0.6936    0.0000 C   0  0  0  0  0  0  0  0  0  0  0  0
   -2.6822    0.0924    0.0000 O   0  0  0  0  0  0  0  0  0  0  0  0
   -1.3758   -2.1620    0.0000 C   0  0  0  0  0  0  0  0  0  0  0  0
   -4.0234   -0.6011    0.0000 C   0  0  0  0  0  0  0  0  0  0  0  0
   -0.1040   -1.3642    0.0000 O   0  0  0  0  0  0  0  0  0  0  0  0
   -2.7169   -2.8556    0.0000 C   0  0  0  0  0  0  0  0  0  0  0  0
   -0.1040   -2.8556    0.0000 C   0  0  0  0  0  0  0  0  0  0  0  0
   -5.3645    0.2081    0.0000 C   0  0  0  0  0  0  0  0  0  0  0  0
   -4.0580   -2.0695    0.0000 C   0  0  0  0  0  0  0  0  0  0  0  0
   -2.7516   -4.3240    0.0000 C   0  0  0  0  0  0  0  0  0  0  0  0
   -0.1387   -4.3240    0.0000 C   0  0  0  0  0  0  0  0  0  0  0  0
   -6.7056   -0.4855    0.0000 C   0  0  0  0  0  0  0  0  0  0  0  0
   -5.3992   -2.7632    0.0000 C   0  0  0  0  0  0  0  0  0  0  0  0
   -1.4798   -5.0292    0.0000 C   0  0  0  0  0  0  0  0  0  0  0  0
   -6.7403   -1.9538    0.0000 C   0  0  0  0  0  0  0  0  0  0  0  0
  1  2  2  0
  2  3  1  0
  2  4  1  0
  3  5  1  0
  4  6  1  0
  4  7  1  0
  4  8  1  0
  5  9  1  0
  5 10  1  0
  7 11  1  0
  8 12  1  0
  9 13  1  0
 10 14  1  0
 11 15  1  0
 13 16  1  0
 12 15  1  0
 14 16  1  0
M  END
>  <Structure No>
306

>  <Molecule Name>
Cyclohexan-1-ol-1-carboxylic acid, cyclohexyl ester

>  <PubChem CID>
Not found

>  <SMILES>
OC1(CCCCC1)C(OC1CCCCC1)=O

>  <InChIKey>
HPDFCXBRYGDJTE-UHFFFAOYSA-N

>  <Molecular Formula>
C13H22O3

>  <Target Organism>
Aedes aegypti

>  <Reference DOI>
10.3390/toxics11100837

>  <Activity Label>
1

>  <Repellency>
Active

>  <IUPAC>


>  <Common name>
Cyclohexan-1-ol-1-carboxylic acid, cyclohexyl ester

$$$$
Compound 307
     RDKit          2D

 16 17  0  0  0  0  0  0  0  0999 V2000
    0.0000    0.0000    0.0000 O   0  0  0  0  0  0  0  0  0  0  0  0
   -1.1309    1.0226    0.0000 C   0  0  0  0  0  0  0  0  0  0  0  0
   -1.0106    2.5386    0.0000 N   0  0  0  0  0  0  0  0  0  0  0  0
   -2.6228    0.7459    0.0000 C   0  0  0  0  0  0  0  0  0  0  0  0
   -2.4062    3.2003    0.0000 C   0  0  0  0  0  0  0  0  0  0  0  0
    0.2406    3.2966    0.0000 C   0  0  0  0  0  0  0  0  0  0  0  0
   -3.3928    2.0694    0.0000 C   0  0  0  0  0  0  0  0  0  0  0  0
   -3.3928   -0.5053    0.0000 C   0  0  0  0  0  0  0  0  0  0  0  0
   -2.7552    4.6922    0.0000 O   0  0  0  0  0  0  0  0  0  0  0  0
    1.4919    2.5627    0.0000 C   0  0  0  0  0  0  0  0  0  0  0  0
   -4.9208    2.1055    0.0000 C   0  0  0  0  0  0  0  0  0  0  0  0
   -4.9208   -0.4692    0.0000 C   0  0  0  0  0  0  0  0  0  0  0  0
    2.7431    3.3206    0.0000 C   0  0  0  0  0  0  0  0  0  0  0  0
    1.4558    1.1068    0.0000 C   0  0  0  0  0  0  0  0  0  0  0  0
   -5.6908    0.8542    0.0000 C   0  0  0  0  0  0  0  0  0  0  0  0
   -5.6908   -1.7204    0.0000 C   0  0  0  0  0  0  0  0  0  0  0  0
  1  2  2  0
  2  3  1  0
  2  4  1  0
  3  5  1  0
  3  6  1  0
  4  7  1  0
  4  8  1  0
  5  9  2  0
  6 10  1  0
  7 11  1  0
  8 12  1  0
 10 13  1  0
 10 14  1  0
 11 15  1  0
 12 16  1  0
  5  7  1  0
 12 15  1  0
M  END
>  <Structure No>
307

>  <Molecule Name>
5-Methyl-2-(2-methylpropyl)-3a,4,5,6,7,7a-hexahydroisoindole-1,3-dione

>  <PubChem CID>
18740204

>  <SMILES>
CC(C)CN(C(C1C2CC(C)CC1)=O)C2=O

>  <InChIKey>
ZSUUODZXXGQGIR-UHFFFAOYSA-N

>  <Molecular Formula>
C13H21NO2

>  <Target Organism>
Aedes aegypti

>  <Reference DOI>
10.3390/toxics11100837

>  <Activity Label>
1

>  <Repellency>
Active

>  <IUPAC>
5-methyl-2-(2-methylpropyl)-3a,4,5,6,7,7a-hexahydroisoindole-1,3-dione

>  <Common name>
5-Methyl-2-(2-methylpropyl)-3a,4,5,6,7,7a-hexahydroisoindole-1,3-dione

$$$$
Compound 308
     RDKit          2D

 16 15  0  0  0  0  0  0  0  0999 V2000
    0.0000    0.0000    0.0000 C   0  0  0  0  0  0  0  0  0  0  0  0
   -1.5668    0.9320    0.0000 C   0  0  0  0  0  0  0  0  0  0  0  0
    1.4858    0.9320    0.0000 C   0  0  0  0  0  0  0  0  0  0  0  0
   -0.0405   -1.7154    0.0000 C   0  0  0  0  0  0  0  0  0  0  0  0
   -3.1337    0.1215    0.0000 C   0  0  0  0  0  0  0  0  0  0  0  0
    2.4043    1.4993    0.0000 H   0  0  0  0  0  0  0  0  0  0  0  0
    1.9720    0.0135    0.0000 H   0  0  0  0  0  0  0  0  0  0  0  0
    0.9185    1.9315    0.0000 H   0  0  0  0  0  0  0  0  0  0  0  0
   -0.0810   -2.7825    0.0000 H   0  0  0  0  0  0  0  0  0  0  0  0
   -1.1886   -1.6749    0.0000 H   0  0  0  0  0  0  0  0  0  0  0  0
    1.0265   -1.6749    0.0000 H   0  0  0  0  0  0  0  0  0  0  0  0
   -4.7005    1.0535    0.0000 C   0  0  0  0  0  0  0  0  0  0  0  0
   -6.2674    0.2431    0.0000 C   0  0  0  0  0  0  0  0  0  0  0  0
   -7.8343    1.1751    0.0000 C   0  0  0  0  0  0  0  0  0  0  0  0
   -6.3079   -1.4723    0.0000 C   0  0  0  0  0  0  0  0  0  0  0  0
   -9.4011    0.3647    0.0000 C   0  0  0  0  0  0  0  0  0  0  0  0
  1  2  2  0
  1  3  1  0
  1  4  1  0
  2  5  1  0
  3  6  1  0
  3  7  1  0
  3  8  1  0
  4  9  1  0
  4 10  1  0
  4 11  1  0
  5 12  1  0
 12 13  1  0
 13 14  1  0
 13 15  2  0
 14 16  2  0
M  ISO  6   6   2   7   2   8   2   9   2  10   2  11   2
M  END
>  <Structure No>
308

>  <Molecule Name>
8,8,8-Trideuterio-3-methylidene-7-(trideuteriomethyl)octa-1,6-diene

>  <PubChem CID>
46782411

>  <SMILES>
[2H]C([2H])([2H])C(C([2H])([2H])[2H])=CCCC(C=C)=C

>  <InChIKey>
UAHWPYUMFXYFJY-XERRXZQWSA-N

>  <Molecular Formula>
C10H10D6

>  <Target Organism>
Anopheles spp.

>  <Reference DOI>
10.1186/s13071-017-2122-8

>  <Activity Label>
1

>  <Repellency>
Active

>  <IUPAC>
8,8,8-trideuterio-3-methylidene-7-(trideuteriomethyl)octa-1,6-diene

>  <Common name>
8,8,8-Trideuterio-3-methylidene-7-(trideuteriomethyl)octa-1,6-diene

$$$$
Compound 309
     RDKit          2D

 16 15  0  0  0  0  0  0  0  0999 V2000
    0.0000    0.0000    0.0000 O   0  0  0  0  0  0  0  0  0  0  0  0
   -0.0345   -1.4607    0.0000 C   0  0  0  0  0  0  0  0  0  0  0  0
    1.2307   -2.1738    0.0000 O   0  0  0  0  0  0  0  0  0  0  0  0
   -1.3687   -2.1738    0.0000 C   0  0  0  0  0  0  0  0  0  0  0  0
    2.4959   -1.3802    0.0000 C   0  0  0  0  0  0  0  0  0  0  0  0
   -2.7029   -1.3802    0.0000 C   0  0  0  0  0  0  0  0  0  0  0  0
    3.7611   -2.0818    0.0000 C   0  0  0  0  0  0  0  0  0  0  0  0
   -4.0371   -2.0818    0.0000 C   0  0  0  0  0  0  0  0  0  0  0  0
    5.0263   -1.2882    0.0000 C   0  0  0  0  0  0  0  0  0  0  0  0
   -4.0716   -3.5425    0.0000 O   0  0  0  0  0  0  0  0  0  0  0  0
   -5.3713   -1.2882    0.0000 O   0  0  0  0  0  0  0  0  0  0  0  0
    6.2915   -1.9898    0.0000 C   0  0  0  0  0  0  0  0  0  0  0  0
   -6.7056   -1.9898    0.0000 C   0  0  0  0  0  0  0  0  0  0  0  0
   -8.0398   -1.1961    0.0000 C   0  0  0  0  0  0  0  0  0  0  0  0
   -9.3740   -1.8978    0.0000 C   0  0  0  0  0  0  0  0  0  0  0  0
  -10.7082   -1.1041    0.0000 C   0  0  0  0  0  0  0  0  0  0  0  0
  1  2  2  0
  2  3  1  0
  2  4  1  0
  3  5  1  0
  4  6  2  0
  5  7  1  0
  6  8  1  0
  7  9  1  0
  8 10  2  0
  8 11  1  0
  9 12  1  0
 11 13  1  0
 13 14  1  0
 14 15  1  0
 15 16  1  0
M  END
>  <Structure No>
309

>  <Molecule Name>
Dibutyl fumarate

>  <PubChem CID>
5271570

>  <SMILES>
CCCCOC(/C=C/C(OCCCC)=O)=O

>  <InChIKey>
JBSLOWBPDRZSMB-BQYQJAHWSA-N

>  <Molecular Formula>
C12H20O4

>  <Target Organism>
Anopheles spp.

>  <Reference DOI>
10.1186/s13071-017-2122-8

>  <Activity Label>
1

>  <Repellency>
Active

>  <IUPAC>


>  <Common name>
Dibutyl fumarate

$$$$
Compound 310
     RDKit          2D

 16 15  0  0  0  0  0  0  0  0999 V2000
    0.0000    0.0000    0.0000 O   0  0  0  0  0  0  0  0  0  0  0  0
    0.0000   -1.4994    0.0000 C   0  0  0  0  0  0  0  0  0  0  0  0
    1.2987   -2.2550    0.0000 O   0  0  0  0  0  0  0  0  0  0  0  0
   -1.2987   -2.2550    0.0000 C   0  0  0  0  0  0  0  0  0  0  0  0
    2.5974   -1.5112    0.0000 C   0  0  0  0  0  0  0  0  0  0  0  0
   -2.5974   -1.5112    0.0000 C   0  0  0  0  0  0  0  0  0  0  0  0
    3.8962   -2.2668    0.0000 C   0  0  0  0  0  0  0  0  0  0  0  0
   -3.8962   -2.2668    0.0000 C   0  0  0  0  0  0  0  0  0  0  0  0
   -5.1949   -1.5230    0.0000 C   0  0  0  0  0  0  0  0  0  0  0  0
   -6.4937   -2.2787    0.0000 C   0  0  0  0  0  0  0  0  0  0  0  0
   -7.7924   -1.5348    0.0000 C   0  0  0  0  0  0  0  0  0  0  0  0
   -9.0911   -2.2905    0.0000 C   0  0  0  0  0  0  0  0  0  0  0  0
  -10.3899   -1.5466    0.0000 C   0  0  0  0  0  0  0  0  0  0  0  0
  -11.6886   -2.3023    0.0000 C   0  0  0  0  0  0  0  0  0  0  0  0
  -12.9874   -1.5584    0.0000 C   0  0  0  0  0  0  0  0  0  0  0  0
  -14.2861   -2.3141    0.0000 C   0  0  0  0  0  0  0  0  0  0  0  0
  1  2  2  0
  2  3  1  0
  2  4  1  0
  3  5  1  0
  4  6  1  0
  5  7  1  0
  6  8  1  0
  8  9  1  0
  9 10  1  0
 10 11  1  0
 11 12  1  0
 12 13  1  0
 13 14  1  0
 14 15  1  0
 15 16  1  0
M  END
>  <Structure No>
310

>  <Molecule Name>
Ethyl Dodecanoate

>  <PubChem CID>
7800

>  <SMILES>
CCCCCCCCCCCC(OCC)=O

>  <InChIKey>
MMXKVMNBHPAILY-UHFFFAOYSA-N

>  <Molecular Formula>
C14H28O2

>  <Target Organism>
Aedes aegypti

>  <Reference DOI>
10.1002/ps.5994

>  <Activity Label>
1

>  <Repellency>
Active

>  <IUPAC>


>  <Common name>
Ethyl Dodecanoate

$$$$
Compound 311
     RDKit          2D

  0  0  0  0  0  0  0  0  0  0999 V3000
M  V30 BEGIN CTAB
M  V30 COUNTS 16 15 0 0 0
M  V30 BEGIN ATOM
M  V30 1 O 0.000000 0.000000 0.000000 0
M  V30 2 C 1.263200 0.884200 0.000000 0
M  V30 3 C 0.378900 2.308300 0.000000 0
M  V30 4 C 2.526500 1.768500 0.000000 0
M  V30 5 C 1.906300 -0.378900 0.000000 0
M  V30 6 C 1.022000 3.732300 0.000000 0
M  V30 7 C 3.789700 1.125400 0.000000 0
M  V30 8 C 5.053000 2.009700 0.000000 0
M  V30 9 C 6.316300 1.366600 0.000000 0
M  V30 10 C 7.579500 2.250900 0.000000 0
M  V30 11 C 6.235900 -0.091800 0.000000 0
M  V30 12 C 8.842800 1.607700 0.000000 0
M  V30 13 C 10.106100 2.492000 0.000000 0
M  V30 14 C 11.369300 1.848900 0.000000 0
M  V30 15 C 12.632600 2.733200 0.000000 0
M  V30 16 C 11.288900 0.390400 0.000000 0
M  V30 END ATOM
M  V30 BEGIN BOND
M  V30 1 1 2 1
M  V30 2 1 2 3
M  V30 3 1 2 4
M  V30 4 1 2 5 CFG=1
M  V30 5 2 3 6
M  V30 6 1 4 7
M  V30 7 1 7 8
M  V30 8 2 8 9 CFG=2
M  V30 9 1 9 10
M  V30 10 1 9 11
M  V30 11 1 10 12
M  V30 12 1 12 13
M  V30 13 2 13 14
M  V30 14 1 14 15
M  V30 15 1 14 16
M  V30 END BOND
M  V30 BEGIN COLLECTION
M  V30 MDLV30/STERAC1 ATOMS=(1 2)
M  V30 END COLLECTION
M  V30 END CTAB
M  END
>  <Structure No>
311

>  <Molecule Name>
1,6,10-Dodecatrien-3-ol, 3,7,11-trimethyl-

>  <PubChem CID>
8888

>  <SMILES>
CC(CCC=C(C)CCC=C(C)C)(C=C)O

>  <InChIKey>
FQTLCLSUCSAZDY-OAHLLOKOSA-N

>  <Molecular Formula>
C15H26O

>  <Target Organism>
Aedes aegypti

>  <Reference DOI>
10.1038/s41598-022-24923-x

>  <Activity Label>
1

>  <Repellency>
Active

>  <IUPAC>
3,7,11-trimethyldodeca-1,6,10-trien-3-ol

>  <Common name>
1,6,10-Dodecatrien-3-ol, 3,7,11-trimethyl-

$$$$
Compound 312
     RDKit          2D

  0  0  0  0  0  0  0  0  0  0999 V3000
M  V30 BEGIN CTAB
M  V30 COUNTS 16 15 0 0 0
M  V30 BEGIN ATOM
M  V30 1 O 0.000000 0.000000 0.000000 0
M  V30 2 C -0.036300 -1.467100 0.000000 0
M  V30 3 O 1.224600 -2.206800 0.000000 0
M  V30 4 C -1.370100 -2.206800 0.000000 0
M  V30 5 C 2.485700 -1.430800 0.000000 0
M  V30 6 O -2.146200 -3.467800 0.000000 0
M  V30 7 C -2.703900 -1.430800 0.000000 0
M  V30 8 C -0.630500 -3.467800 0.000000 0
M  V30 9 C 3.746700 -2.170400 0.000000 0
M  V30 10 O -4.037700 -2.170400 0.000000 0
M  V30 11 C 5.007800 -1.394400 0.000000 0
M  V30 12 C -5.371500 -1.394400 0.000000 0
M  V30 13 C 6.268800 -2.134000 0.000000 0
M  V30 14 C 4.971400 0.145500 0.000000 0
M  V30 15 O -6.705300 -2.134000 0.000000 0
M  V30 16 C -5.407900 0.145500 0.000000 0
M  V30 END ATOM
M  V30 BEGIN BOND
M  V30 1 2 1 2
M  V30 2 1 2 3
M  V30 3 1 2 4
M  V30 4 1 3 5
M  V30 5 1 4 6
M  V30 6 1 4 7
M  V30 7 1 4 8 CFG=3
M  V30 8 1 5 9
M  V30 9 1 7 10
M  V30 10 1 9 11
M  V30 11 1 10 12
M  V30 12 1 11 13
M  V30 13 1 11 14
M  V30 14 2 12 15
M  V30 15 1 12 16
M  V30 END BOND
M  V30 BEGIN COLLECTION
M  V30 MDLV30/STERAC1 ATOMS=(1 4)
M  V30 END COLLECTION
M  V30 END CTAB
M  END
>  <Structure No>
312

>  <Molecule Name>
alpha-Hydroxy-beta-acetoxy-isobutyric acid, iso-amyl ester

>  <PubChem CID>
Not found

>  <SMILES>
CC(C)CCOC(C(C)(COC(C)=O)O)=O

>  <InChIKey>
HJOWXBVJJZTCHX-NSHDSACASA-N

>  <Molecular Formula>
C11H20O5

>  <Target Organism>
Aedes aegypti

>  <Reference DOI>
10.3390/toxics11100837

>  <Activity Label>
1

>  <Repellency>
Active

>  <IUPAC>


>  <Common name>
alpha-Hydroxy-beta-acetoxy-isobutyric acid, iso-amyl ester

$$$$
Compound 313
     RDKit          2D

 16 15  0  0  0  0  0  0  0  0999 V2000
    0.0000    0.0000    0.0000 O   0  0  0  0  0  0  0  0  0  0  0  0
   -0.0364   -1.4694    0.0000 C   0  0  0  0  0  0  0  0  0  0  0  0
    1.2265   -2.2102    0.0000 O   0  0  0  0  0  0  0  0  0  0  0  0
   -1.3722   -2.2102    0.0000 N   0  0  0  0  0  0  0  0  0  0  0  0
    2.4895   -1.4208    0.0000 C   0  0  0  0  0  0  0  0  0  0  0  0
   -1.4087   -3.6796    0.0000 C   0  0  0  0  0  0  0  0  0  0  0  0
   -2.7081   -1.4208    0.0000 C   0  0  0  0  0  0  0  0  0  0  0  0
    3.7525   -2.1616    0.0000 C   0  0  0  0  0  0  0  0  0  0  0  0
   -2.7445   -4.4083    0.0000 O   0  0  0  0  0  0  0  0  0  0  0  0
   -0.1457   -4.4083    0.0000 O   0  0  0  0  0  0  0  0  0  0  0  0
   -2.7445    0.1214    0.0000 O   0  0  0  0  0  0  0  0  0  0  0  0
   -4.0439   -2.1616    0.0000 O   0  0  0  0  0  0  0  0  0  0  0  0
   -0.1821   -5.8777    0.0000 C   0  0  0  0  0  0  0  0  0  0  0  0
   -5.3798   -1.3722    0.0000 C   0  0  0  0  0  0  0  0  0  0  0  0
    1.0808   -6.6185    0.0000 C   0  0  0  0  0  0  0  0  0  0  0  0
   -6.7157   -2.1130    0.0000 C   0  0  0  0  0  0  0  0  0  0  0  0
  1  2  2  0
  2  3  1  0
  2  4  1  0
  3  5  1  0
  4  6  1  0
  4  7  1  0
  5  8  1  0
  6  9  2  0
  6 10  1  0
  7 11  2  0
  7 12  1  0
 10 13  1  0
 12 14  1  0
 13 15  1  0
 14 16  1  0
M  END
>  <Structure No>
313

>  <Molecule Name>
Dicarboethoxyurethane

>  <PubChem CID>
76671

>  <SMILES>
CCOC(N(C(OCC)=O)C(OCC)=O)=O

>  <InChIKey>
WMXDFLUIDJYHMF-UHFFFAOYSA-N

>  <Molecular Formula>
C9H15NO6

>  <Target Organism>
Aedes aegypti

>  <Reference DOI>
10.3390/toxics11100837

>  <Activity Label>
1

>  <Repellency>
Active

>  <IUPAC>
ethyl N,N-bis(ethoxycarbonyl)carbamate

>  <Common name>
Dicarboethoxyurethane

$$$$
Compound 314
     RDKit          2D

 16 15  0  0  0  0  0  0  0  0999 V2000
    0.0000    0.0000    0.0000 O   0  0  0  0  0  0  0  0  0  0  0  0
   -0.0366   -1.4789    0.0000 C   0  0  0  0  0  0  0  0  0  0  0  0
    1.2345   -2.2245    0.0000 O   0  0  0  0  0  0  0  0  0  0  0  0
   -1.3812   -2.2245    0.0000 C   0  0  0  0  0  0  0  0  0  0  0  0
    2.5057   -1.4423    0.0000 C   0  0  0  0  0  0  0  0  0  0  0  0
   -2.7257   -1.4423    0.0000 C   0  0  0  0  0  0  0  0  0  0  0  0
    3.7769   -2.1879    0.0000 C   0  0  0  0  0  0  0  0  0  0  0  0
   -4.0702   -2.1879    0.0000 C   0  0  0  0  0  0  0  0  0  0  0  0
    5.0481   -1.4056    0.0000 N   0  0  0  0  0  0  0  0  0  0  0  0
    6.3193   -2.1512    0.0000 C   0  0  0  0  0  0  0  0  0  0  0  0
    5.0114    0.1466    0.0000 C   0  0  0  0  0  0  0  0  0  0  0  0
    6.2826   -3.6302    0.0000 O   0  0  0  0  0  0  0  0  0  0  0  0
    7.5904   -1.3689    0.0000 C   0  0  0  0  0  0  0  0  0  0  0  0
    6.2826    0.9289    0.0000 C   0  0  0  0  0  0  0  0  0  0  0  0
    8.8616   -2.1145    0.0000 C   0  0  0  0  0  0  0  0  0  0  0  0
   10.1328   -1.3323    0.0000 C   0  0  0  0  0  0  0  0  0  0  0  0
  1  2  2  0
  2  3  1  0
  2  4  1  0
  3  5  1  0
  4  6  1  0
  5  7  1  0
  6  8  1  0
  7  9  1  0
  9 10  1  0
  9 11  1  0
 10 12  2  0
 10 13  1  0
 11 14  1  0
 13 15  1  0
 15 16  1  0
M  END
>  <Structure No>
314

>  <Molecule Name>
N-Ethyl-N-(2-butyroxy-ethyl)butyramide

>  <PubChem CID>
245382

>  <SMILES>
CCCC(N(CC)CCOC(CCC)=O)=O

>  <InChIKey>
WIDCBXCSJKGBEW-UHFFFAOYSA-N

>  <Molecular Formula>
C12H23NO3

>  <Target Organism>
Aedes aegypti

>  <Reference DOI>
10.3390/toxics11100837

>  <Activity Label>
1

>  <Repellency>
Active

>  <IUPAC>
2-[butanoyl(ethyl)amino]ethyl butanoate

>  <Common name>
N-Ethyl-N-(2-butyroxy-ethyl)butyramide

$$$$
Compound 315
     RDKit          2D

 16 15  0  0  0  0  0  0  0  0999 V2000
    0.0000    0.0000    0.0000 O   0  0  0  0  0  0  0  0  0  0  0  0
   -0.0365   -1.4754    0.0000 C   0  0  0  0  0  0  0  0  0  0  0  0
   -1.3779   -2.2192    0.0000 O   0  0  0  0  0  0  0  0  0  0  0  0
    1.2315   -2.2192    0.0000 C   0  0  0  0  0  0  0  0  0  0  0  0
   -2.7192   -1.4388    0.0000 C   0  0  0  0  0  0  0  0  0  0  0  0
    2.4997   -1.4388    0.0000 C   0  0  0  0  0  0  0  0  0  0  0  0
   -4.0605   -2.1827    0.0000 C   0  0  0  0  0  0  0  0  0  0  0  0
    3.7679   -2.1827    0.0000 C   0  0  0  0  0  0  0  0  0  0  0  0
    3.7313   -3.6581    0.0000 O   0  0  0  0  0  0  0  0  0  0  0  0
    5.0360   -1.4022    0.0000 N   0  0  0  0  0  0  0  0  0  0  0  0
    6.3042   -2.1461    0.0000 C   0  0  0  0  0  0  0  0  0  0  0  0
    4.9994    0.1463    0.0000 C   0  0  0  0  0  0  0  0  0  0  0  0
    7.5724   -1.3779    0.0000 C   0  0  0  0  0  0  0  0  0  0  0  0
    6.2676    0.9267    0.0000 C   0  0  0  0  0  0  0  0  0  0  0  0
    8.8405   -2.1217    0.0000 C   0  0  0  0  0  0  0  0  0  0  0  0
    6.2310    2.4753    0.0000 C   0  0  0  0  0  0  0  0  0  0  0  0
  1  2  2  0
  2  3  1  0
  2  4  1  0
  3  5  1  0
  4  6  1  0
  5  7  1  0
  6  8  1  0
  8  9  2  0
  8 10  1  0
 10 11  1  0
 10 12  1  0
 11 13  1  0
 12 14  1  0
 13 15  1  0
 14 16  1  0
M  END
>  <Structure No>
315

>  <Molecule Name>
Ethyl 4-(dipropylamino)-4-oxobutanoate

>  <PubChem CID>
82404

>  <SMILES>
CCCN(CCC)C(CCC(OCC)=O)=O

>  <InChIKey>
RKOVACICPIRRED-UHFFFAOYSA-N

>  <Molecular Formula>
C12H23NO3

>  <Target Organism>
Aedes aegypti

>  <Reference DOI>
10.3390/toxics11100837

>  <Activity Label>
1

>  <Repellency>
Active

>  <IUPAC>
ethyl 4-(dipropylamino)-4-oxobutanoate

>  <Common name>
Ethyl 4-(dipropylamino)-4-oxobutanoate

$$$$
Compound 316
     RDKit          2D

 16 15  0  0  0  0  0  0  0  0999 V2000
    0.0000    0.0000    0.0000 O   0  0  0  0  0  0  0  0  0  0  0  0
   -0.0366   -1.4772    0.0000 C   0  0  0  0  0  0  0  0  0  0  0  0
   -1.3795   -2.2097    0.0000 O   0  0  0  0  0  0  0  0  0  0  0  0
    1.2330   -2.2097    0.0000 C   0  0  0  0  0  0  0  0  0  0  0  0
   -2.7225   -1.4284    0.0000 C   0  0  0  0  0  0  0  0  0  0  0  0
    2.5027   -1.4284    0.0000 C   0  0  0  0  0  0  0  0  0  0  0  0
   -4.0654   -2.1609    0.0000 C   0  0  0  0  0  0  0  0  0  0  0  0
    3.7724   -2.1609    0.0000 C   0  0  0  0  0  0  0  0  0  0  0  0
    5.0421   -1.3795    0.0000 C   0  0  0  0  0  0  0  0  0  0  0  0
    6.3118   -2.1120    0.0000 C   0  0  0  0  0  0  0  0  0  0  0  0
    6.2752   -3.5893    0.0000 O   0  0  0  0  0  0  0  0  0  0  0  0
    7.5815   -1.3307    0.0000 N   0  0  0  0  0  0  0  0  0  0  0  0
    8.8512   -2.0632    0.0000 C   0  0  0  0  0  0  0  0  0  0  0  0
    7.5449    0.2197    0.0000 C   0  0  0  0  0  0  0  0  0  0  0  0
   10.1209   -1.2819    0.0000 C   0  0  0  0  0  0  0  0  0  0  0  0
    6.2019    1.0011    0.0000 C   0  0  0  0  0  0  0  0  0  0  0  0
  1  2  2  0
  2  3  1  0
  2  4  1  0
  3  5  1  0
  4  6  1  0
  5  7  1  0
  6  8  1  0
  8  9  1  0
  9 10  1  0
 10 11  2  0
 10 12  1  0
 12 13  1  0
 12 14  1  0
 13 15  1  0
 14 16  1  0
M  END
>  <Structure No>
316

>  <Molecule Name>
Ethyl 6-(diethylamino)-6-oxohexanoate

>  <PubChem CID>
245385

>  <SMILES>
CCN(CC)C(CCCCC(OCC)=O)=O

>  <InChIKey>
CAFJZYMPWONECK-UHFFFAOYSA-N

>  <Molecular Formula>
C12H23NO3

>  <Target Organism>
Aedes aegypti

>  <Reference DOI>
10.3390/toxics11100837

>  <Activity Label>
1

>  <Repellency>
Active

>  <IUPAC>
ethyl 6-(diethylamino)-6-oxohexanoate

>  <Common name>
Ethyl 6-(diethylamino)-6-oxohexanoate

$$$$
Compound 317
     RDKit          2D

  0  0  0  0  0  0  0  0  0  0999 V3000
M  V30 BEGIN CTAB
M  V30 COUNTS 16 15 0 0 0
M  V30 BEGIN ATOM
M  V30 1 O 0.000000 0.000000 0.000000 0
M  V30 2 C -0.036400 1.545000 0.000000 0
M  V30 3 O -1.374700 2.323600 0.000000 0
M  V30 4 C 1.228700 2.323600 0.000000 0
M  V30 5 C -2.712900 1.593700 0.000000 0
M  V30 6 C 2.493900 1.593700 0.000000 0
M  V30 7 C -4.051200 2.384500 0.000000 0
M  V30 8 C -2.749400 0.121600 0.000000 0
M  V30 9 C 3.759200 2.384500 0.000000 0
M  V30 10 C -5.389400 1.654500 0.000000 0
M  V30 11 O 3.722700 3.929500 0.000000 0
M  V30 12 N 5.024400 1.654500 0.000000 0
M  V30 13 C 6.289700 2.445300 0.000000 0
M  V30 14 C 4.987900 0.182400 0.000000 0
M  V30 15 C 7.554900 1.715300 0.000000 0
M  V30 16 C 6.253200 -0.547400 0.000000 0
M  V30 END ATOM
M  V30 BEGIN BOND
M  V30 1 2 1 2
M  V30 2 1 2 3
M  V30 3 1 2 4
M  V30 4 1 3 5
M  V30 5 1 4 6
M  V30 6 1 5 7
M  V30 7 1 5 8 CFG=1
M  V30 8 1 6 9
M  V30 9 1 7 10
M  V30 10 2 9 11
M  V30 11 1 9 12
M  V30 12 1 12 13
M  V30 13 1 12 14
M  V30 14 1 13 15
M  V30 15 1 14 16
M  V30 END BOND
M  V30 BEGIN COLLECTION
M  V30 MDLV30/STERAC1 ATOMS=(1 5)
M  V30 END COLLECTION
M  V30 END CTAB
M  END
>  <Structure No>
317

>  <Molecule Name>
N,N-Diethylsuccinamic acid, sec-butyl ester

>  <PubChem CID>
Not found

>  <SMILES>
CCC(C)OC(CCC(N(CC)CC)=O)=O

>  <InChIKey>
SNSCLSFFZQGNQF-JTQLQIEISA-N

>  <Molecular Formula>
C12H23NO3

>  <Target Organism>
Aedes aegypti

>  <Reference DOI>
10.3390/toxics11100837

>  <Activity Label>
1

>  <Repellency>
Active

>  <IUPAC>


>  <Common name>
N,N-Diethylsuccinamic acid, sec-butyl ester

$$$$
Compound 318
     RDKit          2D

 16 15  0  0  0  0  0  0  0  0999 V2000
    0.0000    0.0000    0.0000 O   0  0  0  0  0  0  0  0  0  0  0  0
   -0.0364    1.5451    0.0000 C   0  0  0  0  0  0  0  0  0  0  0  0
    1.2287    2.3115    0.0000 O   0  0  0  0  0  0  0  0  0  0  0  0
   -1.3747    2.3115    0.0000 C   0  0  0  0  0  0  0  0  0  0  0  0
    2.4940    1.5694    0.0000 C   0  0  0  0  0  0  0  0  0  0  0  0
   -2.7130    1.5694    0.0000 C   0  0  0  0  0  0  0  0  0  0  0  0
    3.7593    2.3480    0.0000 C   0  0  0  0  0  0  0  0  0  0  0  0
    5.0246    1.6059    0.0000 N   0  0  0  0  0  0  0  0  0  0  0  0
    6.2899    2.3845    0.0000 C   0  0  0  0  0  0  0  0  0  0  0  0
    4.9881    0.1338    0.0000 C   0  0  0  0  0  0  0  0  0  0  0  0
    6.2534    3.9296    0.0000 O   0  0  0  0  0  0  0  0  0  0  0  0
    7.5552    1.6424    0.0000 C   0  0  0  0  0  0  0  0  0  0  0  0
    3.6498   -0.6083    0.0000 C   0  0  0  0  0  0  0  0  0  0  0  0
    8.8205    2.4089    0.0000 C   0  0  0  0  0  0  0  0  0  0  0  0
    3.6133   -2.0804    0.0000 C   0  0  0  0  0  0  0  0  0  0  0  0
    2.2750   -2.8225    0.0000 C   0  0  0  0  0  0  0  0  0  0  0  0
  1  2  2  0
  2  3  1  0
  2  4  1  0
  3  5  1  0
  4  6  1  0
  5  7  1  0
  7  8  1  0
  8  9  1  0
  8 10  1  0
  9 11  2  0
  9 12  1  0
 10 13  1  0
 12 14  1  0
 13 15  1  0
 15 16  1  0
M  END
>  <Structure No>
318

>  <Molecule Name>
2-[Butyl(propanoyl)amino]ethyl propanoate

>  <PubChem CID>
245384

>  <SMILES>
CCCCN(CCOC(CC)=O)C(CC)=O

>  <InChIKey>
CUKHPXLJKGYCGU-UHFFFAOYSA-N

>  <Molecular Formula>
C12H23NO3

>  <Target Organism>
Aedes aegypti

>  <Reference DOI>
10.1371/annotation/1dc83f26-8045-4b63-8a86-24c7b71a7f79

>  <Activity Label>
1

>  <Repellency>
Active

>  <IUPAC>
2-[butyl(propanoyl)amino]ethyl propanoate

>  <Common name>
2-[Butyl(propanoyl)amino]ethyl propanoate

$$$$
Compound 319
     RDKit          2D

 17 16  0  0  0  0  0  0  0  0999 V2000
    0.0000    0.0000    0.0000 P   0  0  0  0  0  0  0  0  0  0  0  0
   -0.0363   -1.4646    0.0000 O   0  0  0  0  0  0  0  0  0  0  0  0
    1.2589   -0.7383    0.0000 O   0  0  0  0  0  0  0  0  0  0  0  0
   -0.0363    1.5373    0.0000 O   0  0  0  0  0  0  0  0  0  0  0  0
   -1.3315   -0.7383    0.0000 O   0  0  0  0  0  0  0  0  0  0  0  0
    2.5178    0.0242    0.0000 C   0  0  0  0  0  0  0  0  0  0  0  0
    1.2225    2.3120    0.0000 C   0  0  0  0  0  0  0  0  0  0  0  0
   -2.6630    0.0242    0.0000 C   0  0  0  0  0  0  0  0  0  0  0  0
    3.7767   -0.7141    0.0000 C   0  0  0  0  0  0  0  0  0  0  0  0
    1.1862    3.8493    0.0000 C   0  0  0  0  0  0  0  0  0  0  0  0
   -3.9946   -0.7141    0.0000 C   0  0  0  0  0  0  0  0  0  0  0  0
    5.0356    0.0484    0.0000 C   0  0  0  0  0  0  0  0  0  0  0  0
    2.4451    4.6361    0.0000 C   0  0  0  0  0  0  0  0  0  0  0  0
   -5.3261    0.0484    0.0000 C   0  0  0  0  0  0  0  0  0  0  0  0
    6.2945   -0.6899    0.0000 C   0  0  0  0  0  0  0  0  0  0  0  0
    2.4088    6.1735    0.0000 C   0  0  0  0  0  0  0  0  0  0  0  0
   -6.6576   -0.6899    0.0000 C   0  0  0  0  0  0  0  0  0  0  0  0
  1  2  2  0
  1  3  1  0
  1  4  1  0
  1  5  1  0
  3  6  1  0
  4  7  1  0
  5  8  1  0
  6  9  1  0
  7 10  1  0
  8 11  1  0
  9 12  1  0
 10 13  1  0
 11 14  1  0
 12 15  1  0
 13 16  1  0
 14 17  1  0
M  END
>  <Structure No>
319

>  <Molecule Name>
Tributyl Phosphate

>  <PubChem CID>
31357

>  <SMILES>
CCCCOP(OCCCC)(OCCCC)=O

>  <InChIKey>
STCOOQWBFONSKY-UHFFFAOYSA-N

>  <Molecular Formula>
C12H27O4P

>  <Target Organism>
Aedes aegypti

>  <Reference DOI>
10.3390/toxics11100837

>  <Activity Label>
1

>  <Repellency>
Active

>  <IUPAC>
tributyl phosphate

>  <Common name>
Tributyl Phosphate

$$$$
Compound 320
     RDKit          2D

 17 16  0  0  0  0  0  0  0  0999 V2000
    0.0000    0.0000    0.0000 O   0  0  0  0  0  0  0  0  0  0  0  0
    0.0000    1.5000    0.0000 C   0  0  0  0  0  0  0  0  0  0  0  0
    1.2992    2.2441    0.0000 O   0  0  0  0  0  0  0  0  0  0  0  0
   -1.2992    2.2441    0.0000 C   0  0  0  0  0  0  0  0  0  0  0  0
    2.5984    1.4882    0.0000 C   0  0  0  0  0  0  0  0  0  0  0  0
   -2.5984    1.4882    0.0000 C   0  0  0  0  0  0  0  0  0  0  0  0
    3.8977    2.2323    0.0000 C   0  0  0  0  0  0  0  0  0  0  0  0
   -3.8977    2.2323    0.0000 C   0  0  0  0  0  0  0  0  0  0  0  0
    5.1969    1.4764    0.0000 C   0  0  0  0  0  0  0  0  0  0  0  0
   -5.1969    1.4764    0.0000 C   0  0  0  0  0  0  0  0  0  0  0  0
    6.4962    2.2205    0.0000 C   0  0  0  0  0  0  0  0  0  0  0  0
   -6.4962    2.2205    0.0000 C   0  0  0  0  0  0  0  0  0  0  0  0
   -7.7954    1.4646    0.0000 C   0  0  0  0  0  0  0  0  0  0  0  0
   -9.0946    2.2087    0.0000 C   0  0  0  0  0  0  0  0  0  0  0  0
  -10.3939    1.4527    0.0000 C   0  0  0  0  0  0  0  0  0  0  0  0
  -11.6931    2.1969    0.0000 C   0  0  0  0  0  0  0  0  0  0  0  0
  -12.9924    1.4409    0.0000 C   0  0  0  0  0  0  0  0  0  0  0  0
  1  2  2  0
  2  3  1  0
  2  4  1  0
  3  5  1  0
  4  6  1  0
  5  7  1  0
  6  8  1  0
  7  9  1  0
  8 10  1  0
  9 11  1  0
 10 12  1  0
 12 13  1  0
 13 14  1  0
 14 15  1  0
 15 16  1  0
 16 17  1  0
M  END
>  <Structure No>
320

>  <Molecule Name>
Butyl undecanoate

>  <PubChem CID>
25404

>  <SMILES>
CCCCCCCCCCC(OCCCC)=O

>  <InChIKey>
LZOLAOIYCPZECA-UHFFFAOYSA-N

>  <Molecular Formula>
C15H30O2

>  <Target Organism>
Aedes aegypti

>  <Reference DOI>
10.1002/ps.5994

>  <Activity Label>
1

>  <Repellency>
Active

>  <IUPAC>


>  <Common name>
Butyl undecanoate

$$$$
Compound 321
     RDKit          2D

 17 16  0  0  0  0  0  0  0  0999 V2000
    0.0000    0.0000    0.0000 O   0  0  0  0  0  0  0  0  0  0  0  0
    0.0000   -1.4996    0.0000 C   0  0  0  0  0  0  0  0  0  0  0  0
    1.2989   -2.2554    0.0000 O   0  0  0  0  0  0  0  0  0  0  0  0
   -1.2989   -2.2554    0.0000 C   0  0  0  0  0  0  0  0  0  0  0  0
    2.5978   -1.5114    0.0000 C   0  0  0  0  0  0  0  0  0  0  0  0
   -2.5978   -1.5114    0.0000 C   0  0  0  0  0  0  0  0  0  0  0  0
    3.8967   -2.2672    0.0000 C   0  0  0  0  0  0  0  0  0  0  0  0
   -3.8967   -2.2672    0.0000 C   0  0  0  0  0  0  0  0  0  0  0  0
    5.1956   -1.5232    0.0000 C   0  0  0  0  0  0  0  0  0  0  0  0
   -5.1956   -1.5232    0.0000 C   0  0  0  0  0  0  0  0  0  0  0  0
   -6.4946   -2.2790    0.0000 C   0  0  0  0  0  0  0  0  0  0  0  0
   -7.7935   -1.5350    0.0000 C   0  0  0  0  0  0  0  0  0  0  0  0
   -9.0924   -2.2908    0.0000 C   0  0  0  0  0  0  0  0  0  0  0  0
  -10.3913   -1.5468    0.0000 C   0  0  0  0  0  0  0  0  0  0  0  0
  -11.6903   -2.3026    0.0000 C   0  0  0  0  0  0  0  0  0  0  0  0
  -12.9892   -1.5587    0.0000 C   0  0  0  0  0  0  0  0  0  0  0  0
  -14.2881   -2.3144    0.0000 C   0  0  0  0  0  0  0  0  0  0  0  0
  1  2  2  0
  2  3  1  0
  2  4  1  0
  3  5  1  0
  4  6  1  0
  5  7  1  0
  6  8  1  0
  7  9  1  0
  8 10  1  0
 10 11  1  0
 11 12  1  0
 12 13  1  0
 13 14  1  0
 14 15  1  0
 15 16  1  0
 16 17  1  0
M  END
>  <Structure No>
321

>  <Molecule Name>
Propyl laurate

>  <PubChem CID>
77255

>  <SMILES>
CCCCCCCCCCCC(OCCC)=O

>  <InChIKey>
FTBUKOLPOATXGV-UHFFFAOYSA-N

>  <Molecular Formula>
C15H30O2

>  <Target Organism>
Aedes aegypti

>  <Reference DOI>
10.1002/ps.5994

>  <Activity Label>
1

>  <Repellency>
Active

>  <IUPAC>


>  <Common name>
Propyl laurate

$$$$
Compound 322
     RDKit          2D

  0  0  0  0  0  0  0  0  0  0999 V3000
M  V30 BEGIN CTAB
M  V30 COUNTS 17 16 0 0 0
M  V30 BEGIN ATOM
M  V30 1 O 0.000000 0.000000 0.000000 0
M  V30 2 C -0.034700 -1.471300 0.000000 0
M  V30 3 O -1.378600 -2.189600 0.000000 0
M  V30 4 C 1.239600 -2.189600 0.000000 0
M  V30 5 C -2.722500 -1.390200 0.000000 0
M  V30 6 O 1.204800 -3.660900 0.000000 0
M  V30 7 C 2.514000 -1.390200 0.000000 0
M  V30 8 C -4.066400 -2.108500 0.000000 0
M  V30 9 C 3.788400 -2.108500 0.000000 0
M  V30 10 C -5.410300 -1.309100 0.000000 0
M  V30 11 O 3.753600 -3.579800 0.000000 0
M  V30 12 O 5.062800 -1.309100 0.000000 0
M  V30 13 C -6.754200 -2.050600 0.000000 0
M  V30 14 C 6.337200 -2.050600 0.000000 0
M  V30 15 C 7.611600 -1.251200 0.000000 0
M  V30 16 C 8.885900 -1.957900 0.000000 0
M  V30 17 C 10.160300 -1.158500 0.000000 0
M  V30 END ATOM
M  V30 BEGIN BOND
M  V30 1 2 1 2
M  V30 2 1 2 3
M  V30 3 1 2 4
M  V30 4 1 3 5
M  V30 5 1 4 6 CFG=3
M  V30 6 1 4 7
M  V30 7 1 5 8
M  V30 8 1 7 9
M  V30 9 1 8 10
M  V30 10 2 9 11
M  V30 11 1 9 12
M  V30 12 1 10 13
M  V30 13 1 12 14
M  V30 14 1 14 15
M  V30 15 1 15 16
M  V30 16 1 16 17
M  V30 END BOND
M  V30 BEGIN COLLECTION
M  V30 MDLV30/STERAC1 ATOMS=(1 4)
M  V30 END COLLECTION
M  V30 END CTAB
M  END
>  <Structure No>
322

>  <Molecule Name>
Butanedioic acid, 2-hydroxy-, 1,4-dibutyl ester

>  <PubChem CID>
95385

>  <SMILES>
CCCCOC(CC(C(OCCCC)=O)O)=O

>  <InChIKey>
PDSCSYLDRHAHOX-JTQLQIEISA-N

>  <Molecular Formula>
C12H22O5

>  <Target Organism>
Aedes aegypti

>  <Reference DOI>
10.3390/toxics11100837

>  <Activity Label>
1

>  <Repellency>
Active

>  <IUPAC>
dibutyl 2-hydroxybutanedioate

>  <Common name>
Butanedioic acid, 2-hydroxy-, 1,4-dibutyl ester

$$$$
Compound 323
     RDKit          2D

 17 16  0  0  0  0  0  0  0  0999 V2000
    0.0000    0.0000    0.0000 O   0  0  0  0  0  0  0  0  0  0  0  0
   -0.0366   -1.4774    0.0000 C   0  0  0  0  0  0  0  0  0  0  0  0
   -1.3798   -2.2223    0.0000 O   0  0  0  0  0  0  0  0  0  0  0  0
    1.2332   -2.2223    0.0000 C   0  0  0  0  0  0  0  0  0  0  0  0
   -2.7229   -1.4408    0.0000 C   0  0  0  0  0  0  0  0  0  0  0  0
    2.5031   -1.4408    0.0000 C   0  0  0  0  0  0  0  0  0  0  0  0
   -4.0661   -2.1857    0.0000 C   0  0  0  0  0  0  0  0  0  0  0  0
    3.7731   -2.1857    0.0000 C   0  0  0  0  0  0  0  0  0  0  0  0
    5.0430   -1.4042    0.0000 C   0  0  0  0  0  0  0  0  0  0  0  0
    5.0063    0.1465    0.0000 O   0  0  0  0  0  0  0  0  0  0  0  0
    6.3129   -2.1490    0.0000 N   0  0  0  0  0  0  0  0  0  0  0  0
    7.5828   -1.3675    0.0000 C   0  0  0  0  0  0  0  0  0  0  0  0
    6.2762   -3.6265    0.0000 C   0  0  0  0  0  0  0  0  0  0  0  0
    8.8527   -2.1124    0.0000 C   0  0  0  0  0  0  0  0  0  0  0  0
    4.9331   -4.3714    0.0000 C   0  0  0  0  0  0  0  0  0  0  0  0
   10.1226   -1.3309    0.0000 C   0  0  0  0  0  0  0  0  0  0  0  0
    4.8964   -5.8489    0.0000 C   0  0  0  0  0  0  0  0  0  0  0  0
  1  2  2  0
  2  3  1  0
  2  4  1  0
  3  5  1  0
  4  6  1  0
  5  7  1  0
  6  8  1  0
  8  9  1  0
  9 10  2  0
  9 11  1  0
 11 12  1  0
 11 13  1  0
 12 14  1  0
 13 15  1  0
 14 16  1  0
 15 17  1  0
M  END
>  <Structure No>
323

>  <Molecule Name>
Ethyl 5-(dipropylamino)-5-oxopentanoate

>  <PubChem CID>
245403

>  <SMILES>
CCCN(CCC)C(CCCC(OCC)=O)=O

>  <InChIKey>
GNLVQVJMCKVPJU-UHFFFAOYSA-N

>  <Molecular Formula>
C13H25NO3

>  <Target Organism>
Aedes aegypti

>  <Reference DOI>
10.3390/toxics11100837

>  <Activity Label>
1

>  <Repellency>
Active

>  <IUPAC>
ethyl 5-(dipropylamino)-5-oxopentanoate

>  <Common name>
Ethyl 5-(dipropylamino)-5-oxopentanoate

$$$$
Compound 324
     RDKit          2D

 17 16  0  0  0  0  0  0  0  0999 V2000
    0.0000    0.0000    0.0000 O   0  0  0  0  0  0  0  0  0  0  0  0
   -0.0366   -1.4767    0.0000 C   0  0  0  0  0  0  0  0  0  0  0  0
   -1.3791   -2.2090    0.0000 O   0  0  0  0  0  0  0  0  0  0  0  0
    1.2326   -2.2090    0.0000 C   0  0  0  0  0  0  0  0  0  0  0  0
   -2.7216   -1.4279    0.0000 C   0  0  0  0  0  0  0  0  0  0  0  0
    2.5019   -1.4279    0.0000 C   0  0  0  0  0  0  0  0  0  0  0  0
   -4.0640   -2.1601    0.0000 C   0  0  0  0  0  0  0  0  0  0  0  0
    3.7711   -2.1601    0.0000 C   0  0  0  0  0  0  0  0  0  0  0  0
    5.0404   -1.3791    0.0000 C   0  0  0  0  0  0  0  0  0  0  0  0
    5.0038    0.1708    0.0000 O   0  0  0  0  0  0  0  0  0  0  0  0
    6.3097   -2.1113    0.0000 N   0  0  0  0  0  0  0  0  0  0  0  0
    7.5789   -1.3302    0.0000 C   0  0  0  0  0  0  0  0  0  0  0  0
    6.2731   -3.5881    0.0000 C   0  0  0  0  0  0  0  0  0  0  0  0
    8.8482   -2.0625    0.0000 C   0  0  0  0  0  0  0  0  0  0  0  0
    7.5423    0.2196    0.0000 C   0  0  0  0  0  0  0  0  0  0  0  0
    4.9306   -4.3203    0.0000 C   0  0  0  0  0  0  0  0  0  0  0  0
    7.5423   -4.3325    0.0000 C   0  0  0  0  0  0  0  0  0  0  0  0
  1  2  2  0
  2  3  1  0
  2  4  1  0
  3  5  1  0
  4  6  1  0
  5  7  1  0
  6  8  1  0
  8  9  1  0
  9 10  2  0
  9 11  1  0
 11 12  1  0
 11 13  1  0
 12 14  1  0
 12 15  1  0
 13 16  1  0
 13 17  1  0
M  END
>  <Structure No>
324

>  <Molecule Name>
N,N-Di-iso-propylglutaramic acid, ethyl ester

>  <PubChem CID>
245405

>  <SMILES>
CCOC(CCCC(N(C(C)C)C(C)C)=O)=O

>  <InChIKey>
VGAJVYHZZNGSKR-UHFFFAOYSA-N

>  <Molecular Formula>
C13H25NO3

>  <Target Organism>
Aedes aegypti

>  <Reference DOI>
10.3390/toxics11100837

>  <Activity Label>
1

>  <Repellency>
Active

>  <IUPAC>
ethyl 5-[di(propan-2-yl)amino]-5-oxopentanoate

>  <Common name>
N,N-Di-iso-propylglutaramic acid, ethyl ester

$$$$
Compound 325
     RDKit          2D

 17 16  0  0  0  0  0  0  0  0999 V2000
    0.0000    0.0000    0.0000 O   0  0  0  0  0  0  0  0  0  0  0  0
   -0.0365    1.5485    0.0000 C   0  0  0  0  0  0  0  0  0  0  0  0
   -1.3778    2.3289    0.0000 O   0  0  0  0  0  0  0  0  0  0  0  0
    1.2315    2.3289    0.0000 C   0  0  0  0  0  0  0  0  0  0  0  0
   -2.7191    1.5973    0.0000 C   0  0  0  0  0  0  0  0  0  0  0  0
    2.4996    1.5973    0.0000 C   0  0  0  0  0  0  0  0  0  0  0  0
    3.7677    2.3777    0.0000 C   0  0  0  0  0  0  0  0  0  0  0  0
    5.0358    1.6461    0.0000 C   0  0  0  0  0  0  0  0  0  0  0  0
    6.3039    2.4142    0.0000 C   0  0  0  0  0  0  0  0  0  0  0  0
    6.2674    3.9628    0.0000 O   0  0  0  0  0  0  0  0  0  0  0  0
    7.5721    1.6826    0.0000 N   0  0  0  0  0  0  0  0  0  0  0  0
    8.8402    2.4630    0.0000 C   0  0  0  0  0  0  0  0  0  0  0  0
    7.5355    0.2072    0.0000 C   0  0  0  0  0  0  0  0  0  0  0  0
   10.1083    1.7314    0.0000 C   0  0  0  0  0  0  0  0  0  0  0  0
    8.8036    4.0116    0.0000 C   0  0  0  0  0  0  0  0  0  0  0  0
    6.1942   -0.5243    0.0000 C   0  0  0  0  0  0  0  0  0  0  0  0
    8.8036   -0.5243    0.0000 C   0  0  0  0  0  0  0  0  0  0  0  0
  1  2  2  0
  2  3  1  0
  2  4  1  0
  3  5  1  0
  4  6  1  0
  6  7  1  0
  7  8  1  0
  8  9  1  0
  9 10  2  0
  9 11  1  0
 11 12  1  0
 11 13  1  0
 12 14  1  0
 12 15  1  0
 13 16  1  0
 13 17  1  0
M  END
>  <Structure No>
325

>  <Molecule Name>
Methyl 6-(dipropan-2-ylamino)-6-oxohexanoate

>  <PubChem CID>
245399

>  <SMILES>
CC(C)N(C(C)C)C(CCCCC(OC)=O)=O

>  <InChIKey>
OKDBCLDDUYQSGA-UHFFFAOYSA-N

>  <Molecular Formula>
C13H25NO3

>  <Target Organism>
Aedes aegypti

>  <Reference DOI>
10.3390/toxics11100837

>  <Activity Label>
1

>  <Repellency>
Active

>  <IUPAC>
methyl 6-[di(propan-2-yl)amino]-6-oxohexanoate

>  <Common name>
Methyl 6-(dipropan-2-ylamino)-6-oxohexanoate

$$$$
Compound 326
     RDKit          2D

 17 16  0  0  0  0  0  0  0  0999 V2000
    0.0000    0.0000    0.0000 O   0  0  0  0  0  0  0  0  0  0  0  0
   -0.0364    1.5423    0.0000 C   0  0  0  0  0  0  0  0  0  0  0  0
   -1.3723    2.3075    0.0000 O   0  0  0  0  0  0  0  0  0  0  0  0
    1.2266    2.3075    0.0000 C   0  0  0  0  0  0  0  0  0  0  0  0
   -2.7082    1.5666    0.0000 C   0  0  0  0  0  0  0  0  0  0  0  0
    2.4896    1.5666    0.0000 C   0  0  0  0  0  0  0  0  0  0  0  0
   -4.0442    2.3439    0.0000 C   0  0  0  0  0  0  0  0  0  0  0  0
    3.7527    2.3439    0.0000 C   0  0  0  0  0  0  0  0  0  0  0  0
   -5.3801    1.6031    0.0000 C   0  0  0  0  0  0  0  0  0  0  0  0
    3.7162    3.8863    0.0000 O   0  0  0  0  0  0  0  0  0  0  0  0
    5.0157    1.6031    0.0000 N   0  0  0  0  0  0  0  0  0  0  0  0
    6.2788    2.3682    0.0000 C   0  0  0  0  0  0  0  0  0  0  0  0
    4.9793    0.1335    0.0000 C   0  0  0  0  0  0  0  0  0  0  0  0
    7.5418    1.6273    0.0000 C   0  0  0  0  0  0  0  0  0  0  0  0
    3.6434   -0.5950    0.0000 C   0  0  0  0  0  0  0  0  0  0  0  0
    8.8049    2.4046    0.0000 C   0  0  0  0  0  0  0  0  0  0  0  0
    3.6069   -2.0646    0.0000 C   0  0  0  0  0  0  0  0  0  0  0  0
  1  2  2  0
  2  3  1  0
  2  4  1  0
  3  5  1  0
  4  6  1  0
  5  7  1  0
  6  8  1  0
  7  9  1  0
  8 10  2  0
  8 11  1  0
 11 12  1  0
 11 13  1  0
 12 14  1  0
 13 15  1  0
 14 16  1  0
 15 17  1  0
M  END
>  <Structure No>
326

>  <Molecule Name>
Propyl 4-(dipropylamino)-4-oxobutanoate

>  <PubChem CID>
245404

>  <SMILES>
CCCN(CCC)C(CCC(OCCC)=O)=O

>  <InChIKey>
QYPCSIWAKGGAFC-UHFFFAOYSA-N

>  <Molecular Formula>
C13H25NO3

>  <Target Organism>
Aedes aegypti

>  <Reference DOI>
10.3390/toxics11100837

>  <Activity Label>
1

>  <Repellency>
Active

>  <IUPAC>
propyl 4-(dipropylamino)-4-oxobutanoate

>  <Common name>
Propyl 4-(dipropylamino)-4-oxobutanoate

$$$$
Compound 327
     RDKit          2D

 17 16  0  0  0  0  0  0  0  0999 V2000
    0.0000    0.0000    0.0000 O   0  0  0  0  0  0  0  0  0  0  0  0
   -0.0364    1.5411    0.0000 C   0  0  0  0  0  0  0  0  0  0  0  0
   -1.3713    2.3057    0.0000 O   0  0  0  0  0  0  0  0  0  0  0  0
    1.2256    2.3057    0.0000 C   0  0  0  0  0  0  0  0  0  0  0  0
   -2.7061    1.5776    0.0000 C   0  0  0  0  0  0  0  0  0  0  0  0
    2.4877    1.5776    0.0000 C   0  0  0  0  0  0  0  0  0  0  0  0
   -4.0410    2.3542    0.0000 C   0  0  0  0  0  0  0  0  0  0  0  0
    3.7498    2.3542    0.0000 C   0  0  0  0  0  0  0  0  0  0  0  0
   -5.3759    1.6261    0.0000 C   0  0  0  0  0  0  0  0  0  0  0  0
    3.7134    3.8954    0.0000 O   0  0  0  0  0  0  0  0  0  0  0  0
    5.0119    1.6261    0.0000 N   0  0  0  0  0  0  0  0  0  0  0  0
    6.2740    2.4028    0.0000 C   0  0  0  0  0  0  0  0  0  0  0  0
    4.9755    0.1577    0.0000 C   0  0  0  0  0  0  0  0  0  0  0  0
    7.5360    1.6746    0.0000 C   0  0  0  0  0  0  0  0  0  0  0  0
    6.2376    3.9440    0.0000 C   0  0  0  0  0  0  0  0  0  0  0  0
    3.6406   -0.5582    0.0000 C   0  0  0  0  0  0  0  0  0  0  0  0
    6.2376   -0.5703    0.0000 C   0  0  0  0  0  0  0  0  0  0  0  0
  1  2  2  0
  2  3  1  0
  2  4  1  0
  3  5  1  0
  4  6  1  0
  5  7  1  0
  6  8  1  0
  7  9  1  0
  8 10  2  0
  8 11  1  0
 11 12  1  0
 11 13  1  0
 12 14  1  0
 12 15  1  0
 13 16  1  0
 13 17  1  0
M  END
>  <Structure No>
327

>  <Molecule Name>
Propyl 4-[di(propan-2-yl)amino]-4-oxobutanoate

>  <PubChem CID>
249228

>  <SMILES>
CCCOC(CCC(N(C(C)C)C(C)C)=O)=O

>  <InChIKey>
GNANEQXTQWNBAZ-UHFFFAOYSA-N

>  <Molecular Formula>
C13H25NO3

>  <Target Organism>
Aedes aegypti

>  <Reference DOI>
10.3390/toxics11100837

>  <Activity Label>
1

>  <Repellency>
Active

>  <IUPAC>
propyl 4-[di(propan-2-yl)amino]-4-oxobutanoate

>  <Common name>
Propyl 4-[di(propan-2-yl)amino]-4-oxobutanoate

$$$$
Compound 328
     RDKit          2D

 17 16  0  0  0  0  0  0  0  0999 V2000
    0.0000    0.0000    0.0000 O   0  0  0  0  0  0  0  0  0  0  0  0
   -0.0365   -1.4726    0.0000 C   0  0  0  0  0  0  0  0  0  0  0  0
   -1.3752   -2.2028    0.0000 O   0  0  0  0  0  0  0  0  0  0  0  0
    1.2292   -2.2028    0.0000 C   0  0  0  0  0  0  0  0  0  0  0  0
   -2.7139   -1.4239    0.0000 C   0  0  0  0  0  0  0  0  0  0  0  0
    2.4949   -1.4239    0.0000 C   0  0  0  0  0  0  0  0  0  0  0  0
   -2.7505    0.1217    0.0000 C   0  0  0  0  0  0  0  0  0  0  0  0
   -4.0527   -2.1541    0.0000 C   0  0  0  0  0  0  0  0  0  0  0  0
    3.7606   -2.1541    0.0000 C   0  0  0  0  0  0  0  0  0  0  0  0
    3.7241   -3.6267    0.0000 O   0  0  0  0  0  0  0  0  0  0  0  0
    5.0263   -1.3752    0.0000 N   0  0  0  0  0  0  0  0  0  0  0  0
    6.2920   -2.1054    0.0000 C   0  0  0  0  0  0  0  0  0  0  0  0
    4.9898    0.1703    0.0000 C   0  0  0  0  0  0  0  0  0  0  0  0
    7.5578   -1.3144    0.0000 C   0  0  0  0  0  0  0  0  0  0  0  0
    6.2555   -3.5780    0.0000 C   0  0  0  0  0  0  0  0  0  0  0  0
    6.2555    0.9492    0.0000 C   0  0  0  0  0  0  0  0  0  0  0  0
    3.6511    0.9614    0.0000 C   0  0  0  0  0  0  0  0  0  0  0  0
  1  2  2  0
  2  3  1  0
  2  4  1  0
  3  5  1  0
  4  6  1  0
  5  7  1  0
  5  8  1  0
  6  9  1  0
  9 10  2  0
  9 11  1  0
 11 12  1  0
 11 13  1  0
 12 14  1  0
 12 15  1  0
 13 16  1  0
 13 17  1  0
M  END
>  <Structure No>
328

>  <Molecule Name>
Propan-2-yl 4-[di(propan-2-yl)amino]-4-oxobutanoate

>  <PubChem CID>
249227

>  <SMILES>
CC(C)N(C(C)C)C(CCC(OC(C)C)=O)=O

>  <InChIKey>
XCCJHTUANVHLEA-UHFFFAOYSA-N

>  <Molecular Formula>
C13H25NO3

>  <Target Organism>
Aedes aegypti

>  <Reference DOI>
10.3390/toxics11100837

>  <Activity Label>
1

>  <Repellency>
Active

>  <IUPAC>
propan-2-yl 4-[di(propan-2-yl)amino]-4-oxobutanoate

>  <Common name>
Propan-2-yl 4-[di(propan-2-yl)amino]-4-oxobutanoate

$$$$
Compound 329
     RDKit          2D

 17 18  0  0  0  0  0  0  0  0999 V2000
    0.0000    0.0000    0.0000 O   0  0  0  0  0  0  0  0  0  0  0  0
   -0.0459   -1.4259    0.0000 C   0  0  0  0  0  0  0  0  0  0  0  0
   -1.3646   -2.0853    0.0000 O   0  0  0  0  0  0  0  0  0  0  0  0
    1.1806   -2.0853    0.0000 C   0  0  0  0  0  0  0  0  0  0  0  0
   -2.6833   -1.3339    0.0000 C   0  0  0  0  0  0  0  0  0  0  0  0
    2.4839   -1.4566    0.0000 C   0  0  0  0  0  0  0  0  0  0  0  0
    1.2879   -3.4959    0.0000 C   0  0  0  0  0  0  0  0  0  0  0  0
   -4.0019   -1.9933    0.0000 C   0  0  0  0  0  0  0  0  0  0  0  0
    3.3886   -2.5146    0.0000 C   0  0  0  0  0  0  0  0  0  0  0  0
    4.4313   -1.6559    0.0000 C   0  0  0  0  0  0  0  0  0  0  0  0
    0.1379   -4.4006    0.0000 C   0  0  0  0  0  0  0  0  0  0  0  0
    2.6833   -3.7413    0.0000 C   0  0  0  0  0  0  0  0  0  0  0  0
    4.5386   -3.0666    0.0000 C   0  0  0  0  0  0  0  0  0  0  0  0
   -1.3033   -3.9099    0.0000 O   0  0  0  0  0  0  0  0  0  0  0  0
    0.3833   -5.7959    0.0000 O   0  0  0  0  0  0  0  0  0  0  0  0
   -0.7666   -6.7006    0.0000 C   0  0  0  0  0  0  0  0  0  0  0  0
   -0.5213   -8.0959    0.0000 C   0  0  0  0  0  0  0  0  0  0  0  0
  1  2  2  0
  2  3  1  0
  2  4  1  0
  3  5  1  0
  4  6  2  0
  4  7  1  0
  5  8  1  0
  6  9  1  0
  6 10  1  0
  7 11  1  0
  7 12  1  0
 10 13  1  0
 11 14  2  0
 11 15  1  0
 15 16  1  0
 16 17  1  0
  9 12  1  0
 12 13  1  0
M  END
>  <Structure No>
329

>  <Molecule Name>
Diethyl bicyclo[2.2.1]hept-1-ene-2,3-dicarboxylate

>  <PubChem CID>
19795045

>  <SMILES>
CCOC(C1C(C(OCC)=O)=C2CC1CC2)=O

>  <InChIKey>
RYQMZFLBQFTYQS-UHFFFAOYSA-N

>  <Molecular Formula>
C13H18O4

>  <Target Organism>
Aedes aegypti

>  <Reference DOI>
10.3390/toxics11100837

>  <Activity Label>
1

>  <Repellency>
Active

>  <IUPAC>
diethyl bicyclo[2.2.1]hept-1-ene-2,3-dicarboxylate

>  <Common name>
Diethyl bicyclo[2.2.1]hept-1-ene-2,3-dicarboxylate

$$$$
Compound 330
     RDKit          2D

  0  0  0  0  0  0  0  0  0  0999 V3000
M  V30 BEGIN CTAB
M  V30 COUNTS 17 18 0 0 0
M  V30 BEGIN ATOM
M  V30 1 O 0.000000 0.000000 0.000000 0
M  V30 2 C 0.652200 -1.258600 0.000000 0
M  V30 3 C -0.194500 -2.517300 0.000000 0
M  V30 4 C 0.457700 -3.776000 0.000000 0
M  V30 5 C 1.716400 -4.428300 0.000000 0
M  V30 6 C -0.938300 -4.428300 0.000000 0
M  V30 7 C 1.109900 -2.380000 0.000000 0
M  V30 8 C 1.647700 -5.881500 0.000000 0
M  V30 9 C 3.020800 -3.512900 0.000000 0
M  V30 10 C -1.006900 -5.881500 0.000000 0
M  V30 11 C -2.334300 -3.570100 0.000000 0
M  V30 12 C 2.952200 -6.659600 0.000000 0
M  V30 13 C 0.251700 -6.533700 0.000000 0
M  V30 14 C 1.579000 -7.334700 0.000000 0
M  V30 15 C 4.336700 -4.256600 0.000000 0
M  V30 16 C 4.268100 -5.778500 0.000000 0
M  V30 17 C 2.872100 -8.112800 0.000000 0
M  V30 END ATOM
M  V30 BEGIN BOND
M  V30 1 2 1 2
M  V30 2 1 2 3
M  V30 3 1 3 4
M  V30 4 1 4 5
M  V30 5 1 4 6
M  V30 6 1 4 7 CFG=1
M  V30 7 1 5 8
M  V30 8 1 5 9 CFG=1
M  V30 9 1 6 10
M  V30 10 1 6 11 CFG=1
M  V30 11 1 8 12
M  V30 12 1 8 13
M  V30 13 1 8 14 CFG=1
M  V30 14 1 9 15
M  V30 15 2 12 16
M  V30 16 1 12 17
M  V30 17 1 10 13
M  V30 18 1 15 16
M  V30 END BOND
M  V30 BEGIN COLLECTION
M  V30 MDLV30/STEABS ATOMS=(4 4 5 6 8)
M  V30 END COLLECTION
M  V30 END CTAB
M  END
>  <Structure No>
330

>  <Molecule Name>
(1S,2R,4aR,8aR)-1,2,3,4,4a,7,8,8a-Octahydro-1,2,4a,5-tetramethyl-1-naphthaleneacetaldehyde; callicarpenal

>  <PubChem CID>
11107286

>  <SMILES>
C[C@H](CC1)[C@](C)(CC=O)[C@@H]2[C@]1(C)C(C)=CCC2; C[C@@H]1CC[C@@]2([C@@H]([C@@]1(C)CC=O)CCC=C2C)C

>  <InChIKey>
MPWIIQYWQOBNKS-UGUYLWEFSA-N

>  <Molecular Formula>
C16H26O

>  <Target Organism>
Aedes aegypti; Anopheles stephensi

>  <Reference DOI>
10.1016/j.tet.2011.02.078; 10.1021/jf0509308

>  <Activity Label>
1

>  <Repellency>
Active

>  <IUPAC>
2-[(1S,2R,4aR,8aR)-1,2,4a,5-tetramethyl-2,3,4,7,8,8a-hexahydronaphthalen-1-yl]acetaldehyde

>  <Common name>
(1S,2R,4aR,8aR)-1,2,3,4,4a,7,8,8a-Octahydro-1,2,4a,5-tetramethyl-1-naphthaleneacetaldehyde; callicarpenal

$$$$
Compound 331
     RDKit          2D

  0  0  0  0  0  0  0  0  0  0999 V3000
M  V30 BEGIN CTAB
M  V30 COUNTS 17 18 0 0 0
M  V30 BEGIN ATOM
M  V30 1 O 0.000000 0.000000 0.000000 0
M  V30 2 C -1.299800 -0.756300 0.000000 0
M  V30 3 O -2.599700 -0.011800 0.000000 0
M  V30 4 C -1.299800 -2.257000 0.000000 0
M  V30 5 C -2.599700 1.488900 0.000000 0
M  V30 6 C 0.000000 -3.013300 0.000000 0
M  V30 7 C -2.599700 -3.013300 0.000000 0
M  V30 8 C 1.418000 -2.552500 0.000000 0
M  V30 9 C 0.000000 -4.514100 0.000000 0
M  V30 10 C 0.000000 -1.512600 0.000000 0
M  V30 11 C -2.599700 -4.514100 0.000000 0
M  V30 12 C 2.292500 -3.757800 0.000000 0
M  V30 13 C -1.299800 -5.270400 0.000000 0
M  V30 14 C 1.418000 -4.975000 0.000000 0
M  V30 15 C 3.793300 -3.757800 0.000000 0
M  V30 16 O 4.549600 -2.457900 0.000000 0
M  V30 17 C 4.549600 -5.057700 0.000000 0
M  V30 END ATOM
M  V30 BEGIN BOND
M  V30 1 2 1 2
M  V30 2 1 2 3
M  V30 3 1 4 2 CFG=1
M  V30 4 1 3 5
M  V30 5 1 4 6
M  V30 6 1 4 7
M  V30 7 1 6 8
M  V30 8 1 6 9
M  V30 9 1 6 10 CFG=1
M  V30 10 1 7 11
M  V30 11 2 8 12
M  V30 12 1 9 13 CFG=3
M  V30 13 1 9 14
M  V30 14 1 12 15
M  V30 15 2 15 16
M  V30 16 1 15 17
M  V30 17 1 11 13
M  V30 18 1 12 14
M  V30 END BOND
M  V30 BEGIN COLLECTION
M  V30 MDLV30/STEABS ATOMS=(3 4 6 9)
M  V30 END COLLECTION
M  V30 END CTAB
M  END
>  <Structure No>
331

>  <Molecule Name>
methyl (3aS,4R,7aS)-2-acetyl-3a-methyl-1,4,5,6,7,7a-hexahydroindene-4-carboxylate

>  <PubChem CID>
11424883

>  <SMILES>


>  <InChIKey>
QQRBZSIGFUEPRF-SGMGOOAPSA-N

>  <Molecular Formula>
C14H20O3

>  <Target Organism>
Aedes aegypti

>  <Reference DOI>
10.1021/acsomega.8b03652

>  <Activity Label>
1

>  <Repellency>
Active

>  <IUPAC>
methyl (3aS,4R,7aS)-2-acetyl-3a-methyl-1,4,5,6,7,7a-hexahydroindene-4-carboxylate

>  <Common name>
methyl (3aS,4R,7aS)-2-acetyl-3a-methyl-1,4,5,6,7,7a-hexahydroindene-4-carboxylate

$$$$
Compound 332
     RDKit          2D

 17 17  0  0  0  0  0  0  0  0999 V2000
    0.0000    0.0000    0.0000 O   0  0  0  0  0  0  0  0  0  0  0  0
   -1.3326   -0.6893    0.0000 C   0  0  0  0  0  0  0  0  0  0  0  0
   -2.6652    0.0919    0.0000 O   0  0  0  0  0  0  0  0  0  0  0  0
   -1.3671   -2.1483    0.0000 C   0  0  0  0  0  0  0  0  0  0  0  0
   -3.9979   -0.5973    0.0000 C   0  0  0  0  0  0  0  0  0  0  0  0
   -2.6997   -1.3556    0.0000 O   0  0  0  0  0  0  0  0  0  0  0  0
   -2.6997   -2.8491    0.0000 C   0  0  0  0  0  0  0  0  0  0  0  0
   -0.1033   -2.8376    0.0000 C   0  0  0  0  0  0  0  0  0  0  0  0
   -5.3305    0.1838    0.0000 C   0  0  0  0  0  0  0  0  0  0  0  0
   -2.7342   -4.3081    0.0000 C   0  0  0  0  0  0  0  0  0  0  0  0
   -0.1378   -4.2966    0.0000 C   0  0  0  0  0  0  0  0  0  0  0  0
   -6.6632   -0.5054    0.0000 O   0  0  0  0  0  0  0  0  0  0  0  0
   -1.4705   -4.9974    0.0000 C   0  0  0  0  0  0  0  0  0  0  0  0
   -7.9958    0.2757    0.0000 C   0  0  0  0  0  0  0  0  0  0  0  0
   -9.3285   -0.4135    0.0000 C   0  0  0  0  0  0  0  0  0  0  0  0
  -10.6611    0.3676    0.0000 C   0  0  0  0  0  0  0  0  0  0  0  0
  -11.9938   -0.3216    0.0000 C   0  0  0  0  0  0  0  0  0  0  0  0
  1  2  2  0
  2  3  1  0
  2  4  1  0
  3  5  1  0
  4  6  1  0
  4  7  1  0
  4  8  1  0
  5  9  1  0
  7 10  1  0
  8 11  1  0
  9 12  1  0
 10 13  1  0
 12 14  1  0
 14 15  1  0
 15 16  1  0
 16 17  1  0
 11 13  1  0
M  END
>  <Structure No>
332

>  <Molecule Name>
2-Butoxyethyl 1-hydroxycyclohexanecarboxylate

>  <PubChem CID>
248371

>  <SMILES>
CCCCOCCOC(C1(CCCCC1)O)=O

>  <InChIKey>
MFAHPLOGYBDMIF-UHFFFAOYSA-N

>  <Molecular Formula>
C13H24O4

>  <Target Organism>
Aedes aegypti

>  <Reference DOI>
10.3390/toxics11100837

>  <Activity Label>
1

>  <Repellency>
Active

>  <IUPAC>
2-butoxyethyl 1-hydroxycyclohexane-1-carboxylate

>  <Common name>
2-Butoxyethyl 1-hydroxycyclohexanecarboxylate

$$$$
Compound 333
     RDKit          2D

  0  0  0  0  0  0  0  0  0  0999 V3000
M  V30 BEGIN CTAB
M  V30 COUNTS 17 17 0 0 0
M  V30 BEGIN ATOM
M  V30 1 O 0.000000 0.000000 0.000000 0
M  V30 2 C -0.034700 -1.469800 0.000000 0
M  V30 3 O -1.377200 -2.164200 0.000000 0
M  V30 4 C 1.238300 -2.164200 0.000000 0
M  V30 5 C -2.719700 -1.365600 0.000000 0
M  V30 6 O 2.511400 -1.365600 0.000000 0
M  V30 7 C 1.203600 -3.634000 0.000000 0
M  V30 8 C -4.062200 -2.060000 0.000000 0
M  V30 9 C -0.138800 -4.340000 0.000000 0
M  V30 10 C 2.476700 -4.328400 0.000000 0
M  V30 11 C -5.404800 -1.261500 0.000000 0
M  V30 12 C -0.173600 -5.809800 0.000000 0
M  V30 13 C 2.441900 -5.798200 0.000000 0
M  V30 14 C -6.747300 -1.955900 0.000000 0
M  V30 15 C 1.099400 -6.504200 0.000000 0
M  V30 16 C -8.089800 -1.157300 0.000000 0
M  V30 17 C -9.432300 -1.851700 0.000000 0
M  V30 END ATOM
M  V30 BEGIN BOND
M  V30 1 2 1 2
M  V30 2 1 2 3
M  V30 3 1 2 4
M  V30 4 1 3 5
M  V30 5 1 4 6 CFG=3
M  V30 6 1 4 7
M  V30 7 1 5 8
M  V30 8 2 7 9
M  V30 9 1 7 10
M  V30 10 1 8 11
M  V30 11 1 9 12
M  V30 12 2 10 13
M  V30 13 1 11 14
M  V30 14 2 12 15
M  V30 15 1 14 16
M  V30 16 1 16 17
M  V30 17 1 13 15
M  V30 END BOND
M  V30 BEGIN COLLECTION
M  V30 MDLV30/STERAC1 ATOMS=(1 4)
M  V30 END COLLECTION
M  V30 END CTAB
M  END
>  <Structure No>
333

>  <Molecule Name>
Hexyl alpha-hydroxybenzeneacetate

>  <PubChem CID>
21565

>  <SMILES>
CCCCCCOC(C(c1ccccc1)O)=O

>  <InChIKey>
WTWKQARYVVXCNG-CYBMUJFWSA-N

>  <Molecular Formula>
C14H20O3

>  <Target Organism>
Aedes aegypti

>  <Reference DOI>
10.3390/toxics11100837

>  <Activity Label>
1

>  <Repellency>
Active

>  <IUPAC>
hexyl 2-hydroxy-2-phenylacetate

>  <Common name>
Hexyl alpha-hydroxybenzeneacetate

$$$$
Compound 334
     RDKit          2D

 17 17  0  0  0  0  0  0  0  0999 V2000
    0.0000    0.0000    0.0000 O   0  0  0  0  0  0  0  0  0  0  0  0
   -0.0345   -1.4638    0.0000 C   0  0  0  0  0  0  0  0  0  0  0  0
    1.2333   -2.1554    0.0000 N   0  0  0  0  0  0  0  0  0  0  0  0
   -1.3716   -2.1554    0.0000 C   0  0  0  0  0  0  0  0  0  0  0  0
    2.5011   -1.3600    0.0000 C   0  0  0  0  0  0  0  0  0  0  0  0
   -2.7086   -1.3600    0.0000 O   0  0  0  0  0  0  0  0  0  0  0  0
    3.7690   -2.0516    0.0000 C   0  0  0  0  0  0  0  0  0  0  0  0
   -4.0457   -2.0516    0.0000 C   0  0  0  0  0  0  0  0  0  0  0  0
    5.0369   -1.2563    0.0000 C   0  0  0  0  0  0  0  0  0  0  0  0
    3.7345   -3.5155    0.0000 C   0  0  0  0  0  0  0  0  0  0  0  0
   -5.3827   -1.2563    0.0000 C   0  0  0  0  0  0  0  0  0  0  0  0
   -6.7197   -1.9479    0.0000 C   0  0  0  0  0  0  0  0  0  0  0  0
   -8.0568   -1.1410    0.0000 C   0  0  0  0  0  0  0  0  0  0  0  0
   -6.7543   -3.4117    0.0000 C   0  0  0  0  0  0  0  0  0  0  0  0
   -9.3938   -1.8326    0.0000 C   0  0  0  0  0  0  0  0  0  0  0  0
   -8.0914   -4.1033    0.0000 C   0  0  0  0  0  0  0  0  0  0  0  0
   -9.4284   -3.2965    0.0000 C   0  0  0  0  0  0  0  0  0  0  0  0
  1  2  2  0
  2  3  1  0
  2  4  1  0
  3  5  1  0
  4  6  1  0
  5  7  1  0
  6  8  1  0
  7  9  1  0
  7 10  1  0
  8 11  1  0
 11 12  1  0
 12 13  2  0
 12 14  1  0
 13 15  1  0
 14 16  2  0
 15 17  2  0
 16 17  1  0
M  END
>  <Structure No>
334

>  <Molecule Name>
N-iso-Butylphenethoxyacetamide

>  <PubChem CID>
154133407

>  <SMILES>
CC(C)CNC(COCCc1ccccc1)=O

>  <InChIKey>
KYLPBBOZHBPPBO-UHFFFAOYSA-N

>  <Molecular Formula>
C14H21NO2

>  <Target Organism>
Aedes aegypti

>  <Reference DOI>
10.3390/toxics11100837

>  <Activity Label>
1

>  <Repellency>
Active

>  <IUPAC>
N-(2-methylpropyl)-2-(2-phenylethoxy)acetamide

>  <Common name>
N-iso-Butylphenethoxyacetamide

$$$$
Compound 335
     RDKit          2D

 17 17  0  0  0  0  0  0  0  0999 V2000
    0.0000    0.0000    0.0000 O   0  0  0  0  0  0  0  0  0  0  0  0
   -0.0362    1.5339    0.0000 C   0  0  0  0  0  0  0  0  0  0  0  0
    1.2199    2.3190    0.0000 N   0  0  0  0  0  0  0  0  0  0  0  0
   -1.3648    2.3190    0.0000 C   0  0  0  0  0  0  0  0  0  0  0  0
    2.4761    1.5943    0.0000 C   0  0  0  0  0  0  0  0  0  0  0  0
    1.1836    3.8530    0.0000 C   0  0  0  0  0  0  0  0  0  0  0  0
   -2.6935    1.5943    0.0000 C   0  0  0  0  0  0  0  0  0  0  0  0
    3.7322    2.3673    0.0000 C   0  0  0  0  0  0  0  0  0  0  0  0
    2.4398    0.1328    0.0000 C   0  0  0  0  0  0  0  0  0  0  0  0
    2.4398    4.6381    0.0000 C   0  0  0  0  0  0  0  0  0  0  0  0
   -0.1449    4.6381    0.0000 C   0  0  0  0  0  0  0  0  0  0  0  0
   -1.4373    0.8575    0.0000 O   0  0  0  0  0  0  0  0  0  0  0  0
   -4.0221    2.3673    0.0000 C   0  0  0  0  0  0  0  0  0  0  0  0
   -2.7297    0.1328    0.0000 C   0  0  0  0  0  0  0  0  0  0  0  0
   -5.3507    1.6426    0.0000 C   0  0  0  0  0  0  0  0  0  0  0  0
   -4.0583   -0.5918    0.0000 C   0  0  0  0  0  0  0  0  0  0  0  0
   -5.3870    0.1811    0.0000 C   0  0  0  0  0  0  0  0  0  0  0  0
  1  2  2  0
  2  3  1  0
  2  4  1  0
  3  5  1  0
  3  6  1  0
  4  7  1  0
  5  8  1  0
  5  9  1  0
  6 10  1  0
  6 11  1  0
  7 12  1  0
  7 13  1  0
  7 14  1  0
 13 15  1  0
 14 16  1  0
 15 17  1  0
 16 17  1  0
M  END
>  <Structure No>
335

>  <Molecule Name>
2-(1-Hydroxycyclohexyl)-n,n-di(propan-2-yl)acetamide

>  <PubChem CID>
245412

>  <SMILES>
CC(C)N(C(C)C)C(CC1(CCCCC1)O)=O

>  <InChIKey>
JOBNOVQOWAIWBO-UHFFFAOYSA-N

>  <Molecular Formula>
C14H27NO2

>  <Target Organism>
Aedes aegypti

>  <Reference DOI>
10.3390/toxics11100837

>  <Activity Label>
1

>  <Repellency>
Active

>  <IUPAC>
2-(1-hydroxycyclohexyl)-N,N-di(propan-2-yl)acetamide

>  <Common name>
2-(1-Hydroxycyclohexyl)-n,n-di(propan-2-yl)acetamide

$$$$
Compound 336
     RDKit          2D

 18 18  0  0  0  0  0  0  0  0999 V2000
    0.0000    0.0000    0.0000 O   0  0  0  0  0  0  0  0  0  0  0  0
   -1.3446    0.7823    0.0000 C   0  0  0  0  0  0  0  0  0  0  0  0
   -1.4546    2.3347    0.0000 O   0  0  0  0  0  0  0  0  0  0  0  0
   -2.6892    0.1222    0.0000 C   0  0  0  0  0  0  0  0  0  0  0  0
   -2.7992    3.1170    0.0000 C   0  0  0  0  0  0  0  0  0  0  0  0
   -4.0338    0.9045    0.0000 N   0  0  0  0  0  0  0  0  0  0  0  0
   -2.7992   -1.2101    0.0000 C   0  0  0  0  0  0  0  0  0  0  0  0
   -2.9092    4.6694    0.0000 C   0  0  0  0  0  0  0  0  0  0  0  0
   -5.3784    0.2444    0.0000 C   0  0  0  0  0  0  0  0  0  0  0  0
   -4.1438   -1.8702    0.0000 C   0  0  0  0  0  0  0  0  0  0  0  0
   -4.2538    5.4517    0.0000 C   0  0  0  0  0  0  0  0  0  0  0  0
   -5.4884   -1.0879    0.0000 C   0  0  0  0  0  0  0  0  0  0  0  0
   -6.8330   -1.7479    0.0000 C   0  0  0  0  0  0  0  0  0  0  0  0
   -6.9430   -3.0803    0.0000 O   0  0  0  0  0  0  0  0  0  0  0  0
   -8.1776   -0.9656    0.0000 O   0  0  0  0  0  0  0  0  0  0  0  0
   -9.5222   -1.6257    0.0000 C   0  0  0  0  0  0  0  0  0  0  0  0
  -10.8668   -0.8434    0.0000 C   0  0  0  0  0  0  0  0  0  0  0  0
  -12.2114   -1.5035    0.0000 C   0  0  0  0  0  0  0  0  0  0  0  0
  1  2  2  0
  2  3  1  0
  2  4  1  0
  3  5  1  0
  4  6  2  0
  4  7  1  0
  5  8  1  0
  6  9  1  0
  7 10  2  0
  8 11  1  0
  9 12  2  0
 12 13  1  0
 13 14  2  0
 13 15  1  0
 15 16  1  0
 16 17  1  0
 17 18  1  0
 10 12  1  0
M  END
>  <Structure No>
336

>  <Molecule Name>
Dipropyl isocinchomeronate

>  <PubChem CID>
8693

>  <SMILES>
CCCOC(c(cc1)cnc1C(OCCC)=O)=O

>  <InChIKey>
IITCWRFYJWUUPC-UHFFFAOYSA-N

>  <Molecular Formula>
C13H17NO4

>  <Target Organism>
Musca domestica

>  <Reference DOI>
10.1039/A704850E

>  <Activity Label>
1

>  <Repellency>
Active

>  <IUPAC>
dipropyl pyridine-2,5-dicarboxylate

>  <Common name>
Dipropyl isocinchomeronate

$$$$
Compound 337
     RDKit          2D

 18 17  0  0  0  0  0  0  0  0999 V2000
    0.0000    0.0000    0.0000 O   0  0  0  0  0  0  0  0  0  0  0  0
    0.0000    1.4998    0.0000 C   0  0  0  0  0  0  0  0  0  0  0  0
    1.2990    2.2438    0.0000 O   0  0  0  0  0  0  0  0  0  0  0  0
   -1.2990    2.2438    0.0000 C   0  0  0  0  0  0  0  0  0  0  0  0
    2.5981    1.4880    0.0000 C   0  0  0  0  0  0  0  0  0  0  0  0
   -2.5981    1.4880    0.0000 C   0  0  0  0  0  0  0  0  0  0  0  0
    3.8972    2.2320    0.0000 C   0  0  0  0  0  0  0  0  0  0  0  0
   -3.8972    2.2320    0.0000 C   0  0  0  0  0  0  0  0  0  0  0  0
    5.1963    1.4762    0.0000 C   0  0  0  0  0  0  0  0  0  0  0  0
   -5.1963    1.4762    0.0000 C   0  0  0  0  0  0  0  0  0  0  0  0
    6.4954    2.2202    0.0000 C   0  0  0  0  0  0  0  0  0  0  0  0
   -6.4954    2.2202    0.0000 C   0  0  0  0  0  0  0  0  0  0  0  0
    7.7944    1.4644    0.0000 C   0  0  0  0  0  0  0  0  0  0  0  0
   -7.7944    1.4644    0.0000 C   0  0  0  0  0  0  0  0  0  0  0  0
   -9.0935    2.2084    0.0000 C   0  0  0  0  0  0  0  0  0  0  0  0
  -10.3926    1.4526    0.0000 C   0  0  0  0  0  0  0  0  0  0  0  0
  -11.6917    2.1966    0.0000 C   0  0  0  0  0  0  0  0  0  0  0  0
  -12.9908    1.4408    0.0000 C   0  0  0  0  0  0  0  0  0  0  0  0
  1  2  2  0
  2  3  1  0
  2  4  1  0
  3  5  1  0
  4  6  1  0
  5  7  1  0
  6  8  1  0
  7  9  1  0
  8 10  1  0
  9 11  1  0
 10 12  1  0
 11 13  1  0
 12 14  1  0
 14 15  1  0
 15 16  1  0
 16 17  1  0
 17 18  1  0
M  END
>  <Structure No>
337

>  <Molecule Name>
Pentyl Undecanoate

>  <PubChem CID>
11594069

>  <SMILES>
CCCCCCCCCCC(OCCCCC)=O

>  <InChIKey>
RDOSVFWJFQNBEL-UHFFFAOYSA-N

>  <Molecular Formula>
C16H32O2

>  <Target Organism>
Aedes aegypti

>  <Reference DOI>
10.1002/ps.5994

>  <Activity Label>
1

>  <Repellency>
Active

>  <IUPAC>


>  <Common name>
Pentyl Undecanoate

$$$$
Compound 338
     RDKit          2D

  0  0  0  0  0  0  0  0  0  0999 V3000
M  V30 BEGIN CTAB
M  V30 COUNTS 18 17 0 0 0
M  V30 BEGIN ATOM
M  V30 1 O 0.000000 0.000000 0.000000 0
M  V30 2 C -0.036400 1.543000 0.000000 0
M  V30 3 O -1.372900 2.320600 0.000000 0
M  V30 4 C 1.227100 2.320600 0.000000 0
M  V30 5 C -2.709400 1.579500 0.000000 0
M  V30 6 C 2.490700 1.579500 0.000000 0
M  V30 7 C -4.046000 2.357100 0.000000 0
M  V30 8 C -2.745900 0.109300 0.000000 0
M  V30 9 C 3.754300 2.357100 0.000000 0
M  V30 10 C -5.382500 1.615900 0.000000 0
M  V30 11 O 3.717900 3.900100 0.000000 0
M  V30 12 N 5.018000 1.615900 0.000000 0
M  V30 13 C 6.281600 2.393500 0.000000 0
M  V30 14 C 4.981500 0.145800 0.000000 0
M  V30 15 C 7.545200 1.652400 0.000000 0
M  V30 16 C 3.645000 -0.583200 0.000000 0
M  V30 17 C 8.808800 2.430000 0.000000 0
M  V30 18 C 3.608500 -2.053300 0.000000 0
M  V30 END ATOM
M  V30 BEGIN BOND
M  V30 1 2 1 2
M  V30 2 1 2 3
M  V30 3 1 2 4
M  V30 4 1 3 5
M  V30 5 1 4 6
M  V30 6 1 5 7
M  V30 7 1 5 8 CFG=1
M  V30 8 1 6 9
M  V30 9 1 7 10
M  V30 10 2 9 11
M  V30 11 1 9 12
M  V30 12 1 12 13
M  V30 13 1 12 14
M  V30 14 1 13 15
M  V30 15 1 14 16
M  V30 16 1 15 17
M  V30 17 1 16 18
M  V30 END BOND
M  V30 BEGIN COLLECTION
M  V30 MDLV30/STERAC1 ATOMS=(1 5)
M  V30 END COLLECTION
M  V30 END CTAB
M  END
>  <Structure No>
338

>  <Molecule Name>
Butan-2-yl 4-(dipropylamino)-4-oxobutanoate

>  <PubChem CID>
245414

>  <SMILES>
CCCN(CCC)C(CCC(OC(C)CC)=O)=O

>  <InChIKey>
AQDPLOFXDUZUAK-LBPRGKRZSA-N

>  <Molecular Formula>
C14H27NO3

>  <Target Organism>
Aedes aegypti

>  <Reference DOI>
10.3390/toxics11100837

>  <Activity Label>
1

>  <Repellency>
Active

>  <IUPAC>
butan-2-yl 4-(dipropylamino)-4-oxobutanoate

>  <Common name>
Butan-2-yl 4-(dipropylamino)-4-oxobutanoate

$$$$
Compound 339
     RDKit          2D

  0  0  0  0  0  0  0  0  0  0999 V3000
M  V30 BEGIN CTAB
M  V30 COUNTS 18 17 0 0 0
M  V30 BEGIN ATOM
M  V30 1 O 0.000000 0.000000 0.000000 0
M  V30 2 C -0.036400 1.541900 0.000000 0
M  V30 3 O -1.372000 2.319000 0.000000 0
M  V30 4 C 1.226300 2.319000 0.000000 0
M  V30 5 C -2.707500 1.590500 0.000000 0
M  V30 6 C 2.489000 1.590500 0.000000 0
M  V30 7 C -4.043100 2.367600 0.000000 0
M  V30 8 C -2.744000 0.121400 0.000000 0
M  V30 9 C 3.751700 2.367600 0.000000 0
M  V30 10 C -5.378700 1.639100 0.000000 0
M  V30 11 O 3.715300 3.909500 0.000000 0
M  V30 12 N 5.014400 1.639100 0.000000 0
M  V30 13 C 6.277200 2.416100 0.000000 0
M  V30 14 C 4.978000 0.169900 0.000000 0
M  V30 15 C 7.539900 1.687600 0.000000 0
M  V30 16 C 6.240700 3.958100 0.000000 0
M  V30 17 C 3.642400 -0.558500 0.000000 0
M  V30 18 C 6.240700 -0.558500 0.000000 0
M  V30 END ATOM
M  V30 BEGIN BOND
M  V30 1 2 1 2
M  V30 2 1 2 3
M  V30 3 1 2 4
M  V30 4 1 3 5
M  V30 5 1 4 6
M  V30 6 1 5 7
M  V30 7 1 5 8 CFG=1
M  V30 8 1 6 9
M  V30 9 1 7 10
M  V30 10 2 9 11
M  V30 11 1 9 12
M  V30 12 1 12 13
M  V30 13 1 12 14
M  V30 14 1 13 15
M  V30 15 1 13 16
M  V30 16 1 14 17
M  V30 17 1 14 18
M  V30 END BOND
M  V30 BEGIN COLLECTION
M  V30 MDLV30/STERAC1 ATOMS=(1 5)
M  V30 END COLLECTION
M  V30 END CTAB
M  END
>  <Structure No>
339

>  <Molecule Name>
N,N-Di-iso-propylsuccinamic acid, sec-butyl ester

>  <PubChem CID>
Not found

>  <SMILES>
CCC(C)OC(CCC(N(C(C)C)C(C)C)=O)=O

>  <InChIKey>
WWXDEOPXZSMZFZ-LBPRGKRZSA-N

>  <Molecular Formula>
C14H27NO3

>  <Target Organism>
Aedes aegypti

>  <Reference DOI>
10.3390/toxics11100837

>  <Activity Label>
1

>  <Repellency>
Active

>  <IUPAC>


>  <Common name>
N,N-Di-iso-propylsuccinamic acid, sec-butyl ester

$$$$
Compound 340
     RDKit          2D

 19 18  0  0  0  0  0  0  0  0999 V2000
    0.0000    0.0000    0.0000 O   0  0  0  0  0  0  0  0  0  0  0  0
   -0.0362   -1.4606    0.0000 C   0  0  0  0  0  0  0  0  0  0  0  0
   -1.3640   -2.1969    0.0000 O   0  0  0  0  0  0  0  0  0  0  0  0
    1.2191   -2.1969    0.0000 C   0  0  0  0  0  0  0  0  0  0  0  0
   -2.6918   -1.4123    0.0000 C   0  0  0  0  0  0  0  0  0  0  0  0
    2.4746   -1.4123    0.0000 C   0  0  0  0  0  0  0  0  0  0  0  0
   -2.7280    0.1207    0.0000 O   0  0  0  0  0  0  0  0  0  0  0  0
   -4.0197   -2.1486    0.0000 C   0  0  0  0  0  0  0  0  0  0  0  0
    3.7300   -2.1486    0.0000 C   0  0  0  0  0  0  0  0  0  0  0  0
   -5.3475   -1.3640    0.0000 C   0  0  0  0  0  0  0  0  0  0  0  0
    4.9854   -1.3640    0.0000 C   0  0  0  0  0  0  0  0  0  0  0  0
   -6.6753   -2.1003    0.0000 C   0  0  0  0  0  0  0  0  0  0  0  0
    6.2408   -2.1003    0.0000 C   0  0  0  0  0  0  0  0  0  0  0  0
   -8.0032   -1.3278    0.0000 C   0  0  0  0  0  0  0  0  0  0  0  0
    7.4962   -1.3278    0.0000 C   0  0  0  0  0  0  0  0  0  0  0  0
   -9.3310   -2.0641    0.0000 C   0  0  0  0  0  0  0  0  0  0  0  0
    8.7516   -2.0641    0.0000 C   0  0  0  0  0  0  0  0  0  0  0  0
  -10.6589   -1.2916    0.0000 C   0  0  0  0  0  0  0  0  0  0  0  0
  -11.9867   -2.0279    0.0000 C   0  0  0  0  0  0  0  0  0  0  0  0
  1  2  2  0
  2  3  1  0
  2  4  1  0
  3  5  1  0
  4  6  1  0
  5  7  2  0
  5  8  1  0
  6  9  1  0
  8 10  1  0
  9 11  1  0
 10 12  1  0
 11 13  1  0
 12 14  1  0
 13 15  1  0
 14 16  1  0
 15 17  1  0
 16 18  1  0
 18 19  1  0
M  END
>  <Structure No>
340

>  <Molecule Name>
Octanoic anhydride

>  <PubChem CID>
69340

>  <SMILES>
CCCCCCCC(OC(CCCCCCC)=O)=O

>  <InChIKey>
RAFYDKXYXRZODZ-UHFFFAOYSA-N

>  <Molecular Formula>
C16H30O3

>  <Target Organism>
Aedes aegypti

>  <Reference DOI>
10.3390/toxics11100837

>  <Activity Label>
1

>  <Repellency>
Active

>  <IUPAC>
octanoyl octanoate

>  <Common name>
Octanoic anhydride

$$$$
Compound 341
     RDKit          2D

 19 18  0  0  0  0  0  0  0  0999 V2000
    0.0000    0.0000    0.0000 O   0  0  0  0  0  0  0  0  0  0  0  0
   -0.0365   -1.4749    0.0000 C   0  0  0  0  0  0  0  0  0  0  0  0
   -1.3774   -2.2185    0.0000 O   0  0  0  0  0  0  0  0  0  0  0  0
    1.2311   -2.2185    0.0000 N   0  0  0  0  0  0  0  0  0  0  0  0
   -2.7183   -1.4383    0.0000 C   0  0  0  0  0  0  0  0  0  0  0  0
    2.4989   -1.4383    0.0000 C   0  0  0  0  0  0  0  0  0  0  0  0
   -4.0592   -2.1819    0.0000 C   0  0  0  0  0  0  0  0  0  0  0  0
    2.4623    0.1097    0.0000 O   0  0  0  0  0  0  0  0  0  0  0  0
    3.7666   -2.1819    0.0000 C   0  0  0  0  0  0  0  0  0  0  0  0
   -5.4000   -1.3896    0.0000 C   0  0  0  0  0  0  0  0  0  0  0  0
    5.0343   -1.3896    0.0000 O   0  0  0  0  0  0  0  0  0  0  0  0
   -6.7409   -2.1332    0.0000 C   0  0  0  0  0  0  0  0  0  0  0  0
    6.3021   -2.1332    0.0000 C   0  0  0  0  0  0  0  0  0  0  0  0
    7.5698   -1.3530    0.0000 C   0  0  0  0  0  0  0  0  0  0  0  0
    8.8376   -2.0966    0.0000 O   0  0  0  0  0  0  0  0  0  0  0  0
   10.1053   -1.3164    0.0000 C   0  0  0  0  0  0  0  0  0  0  0  0
   11.3730   -2.0600    0.0000 C   0  0  0  0  0  0  0  0  0  0  0  0
   12.6408   -1.2799    0.0000 C   0  0  0  0  0  0  0  0  0  0  0  0
   13.9085   -2.0235    0.0000 C   0  0  0  0  0  0  0  0  0  0  0  0
  1  2  2  0
  2  3  1  0
  2  4  1  0
  3  5  1  0
  4  6  1  0
  5  7  1  0
  6  8  2  0
  6  9  1  0
  7 10  1  0
  9 11  1  0
 10 12  1  0
 11 13  1  0
 13 14  1  0
 14 15  1  0
 15 16  1  0
 16 17  1  0
 17 18  1  0
 18 19  1  0
M  END
>  <Structure No>
341

>  <Molecule Name>
beta-Butoxyethoxyacetylcarbamic acid, butyl ester

>  <PubChem CID>
Not found

>  <SMILES>
CCCCOCCOCC(NC(OCCCC)=O)=O

>  <InChIKey>
OHXLMTKMPUGANV-UHFFFAOYSA-N

>  <Molecular Formula>
C13H25NO5

>  <Target Organism>
Aedes aegypti

>  <Reference DOI>
10.3390/toxics11100837

>  <Activity Label>
1

>  <Repellency>
Active

>  <IUPAC>


>  <Common name>
beta-Butoxyethoxyacetylcarbamic acid, butyl ester

$$$$
Compound 342
     RDKit          2D

 19 19  0  0  0  0  0  0  0  0999 V2000
    0.0000    0.0000    0.0000 O   0  0  0  0  0  0  0  0  0  0  0  0
   -0.0365   -1.4728    0.0000 C   0  0  0  0  0  0  0  0  0  0  0  0
    1.2659    0.7668    0.0000 C   0  0  0  0  0  0  0  0  0  0  0  0
    1.2294   -2.2153    0.0000 C   0  0  0  0  0  0  0  0  0  0  0  0
   -1.3754   -2.2153    0.0000 C   0  0  0  0  0  0  0  0  0  0  0  0
    1.2294    2.3127    0.0000 C   0  0  0  0  0  0  0  0  0  0  0  0
    2.4953   -1.4363    0.0000 O   0  0  0  0  0  0  0  0  0  0  0  0
    1.1928   -3.6882    0.0000 C   0  0  0  0  0  0  0  0  0  0  0  0
   -1.4119   -3.6882    0.0000 C   0  0  0  0  0  0  0  0  0  0  0  0
   -2.7144   -1.4363    0.0000 C   0  0  0  0  0  0  0  0  0  0  0  0
    2.4953    3.0917    0.0000 N   0  0  0  0  0  0  0  0  0  0  0  0
    3.7612   -2.1788    0.0000 C   0  0  0  0  0  0  0  0  0  0  0  0
   -0.1460   -4.4307    0.0000 C   0  0  0  0  0  0  0  0  0  0  0  0
   -4.0533   -2.1788    0.0000 C   0  0  0  0  0  0  0  0  0  0  0  0
    2.4588    4.6376    0.0000 C   0  0  0  0  0  0  0  0  0  0  0  0
    3.7612    2.3492    0.0000 C   0  0  0  0  0  0  0  0  0  0  0  0
   -5.3923   -1.3998    0.0000 C   0  0  0  0  0  0  0  0  0  0  0  0
    3.7247    5.4166    0.0000 C   0  0  0  0  0  0  0  0  0  0  0  0
    5.0271    3.1282    0.0000 C   0  0  0  0  0  0  0  0  0  0  0  0
  1  2  1  0
  1  3  1  0
  2  4  2  0
  2  5  1  0
  3  6  1  0
  4  7  1  0
  4  8  1  0
  5  9  2  0
  5 10  1  0
  6 11  1  0
  7 12  1  0
  8 13  2  0
 10 14  1  0
 11 15  1  0
 11 16  1  0
 14 17  2  0
 15 18  1  0
 16 19  1  0
  9 13  1  0
M  END
>  <Structure No>
342

>  <Molecule Name>
N,N-Diethyl-2-(2-methoxy-6-(2-propen-1-yl)phenoxy)ethanamine

>  <PubChem CID>
80104

>  <SMILES>
CCN(CC)CCOc(c(CC=C)ccc1)c1OC

>  <InChIKey>
BGBFVIKSTCLLDW-UHFFFAOYSA-N

>  <Molecular Formula>
C16H25NO2

>  <Target Organism>
Aedes aegypti

>  <Reference DOI>
10.1371/annotation/1dc83f26-8045-4b63-8a86-24c7b71a7f79

>  <Activity Label>
1

>  <Repellency>
Active

>  <IUPAC>
N,N-diethyl-2-(2-methoxy-6-prop-2-enylphenoxy)ethanamine

>  <Common name>
N,N-Diethyl-2-(2-methoxy-6-(2-propen-1-yl)phenoxy)ethanamine

$$$$
Compound 343
     RDKit          2D

 20 22  0  0  0  0  0  0  0  0999 V2000
    0.0000    0.0000    0.0000 O   0  0  0  0  0  0  0  0  0  0  0  0
   -0.1622    1.3386    0.0000 C   0  0  0  0  0  0  0  0  0  0  0  0
   -1.3588    2.1904    0.0000 N   0  0  0  0  0  0  0  0  0  0  0  0
    0.7504    2.2512    0.0000 C   0  0  0  0  0  0  0  0  0  0  0  0
   -1.1155    3.4884    0.0000 C   0  0  0  0  0  0  0  0  0  0  0  0
   -2.6569    1.8659    0.0000 C   0  0  0  0  0  0  0  0  0  0  0  0
    0.1825    3.5493    0.0000 C   0  0  0  0  0  0  0  0  0  0  0  0
    2.3324    3.1437    0.0000 C   0  0  0  0  0  0  0  0  0  0  0  0
   -2.0484    4.6445    0.0000 O   0  0  0  0  0  0  0  0  0  0  0  0
   -3.0017    0.7098    0.0000 C   0  0  0  0  0  0  0  0  0  0  0  0
    2.5555    4.4823    0.0000 C   0  0  0  0  0  0  0  0  0  0  0  0
    3.9549    2.5960    0.0000 C   0  0  0  0  0  0  0  0  0  0  0  0
    1.5819    5.7195    0.0000 C   0  0  0  0  0  0  0  0  0  0  0  0
   -4.2997    0.3853    0.0000 C   0  0  0  0  0  0  0  0  0  0  0  0
   -2.1296    0.0000    0.0000 C   0  0  0  0  0  0  0  0  0  0  0  0
    4.1780    3.9347    0.0000 C   0  0  0  0  0  0  0  0  0  0  0  0
   -4.6445   -0.7707    0.0000 C   0  0  0  0  0  0  0  0  0  0  0  0
   -2.4743   -1.1560    0.0000 C   0  0  0  0  0  0  0  0  0  0  0  0
   -5.9426   -1.0952    0.0000 C   0  0  0  0  0  0  0  0  0  0  0  0
   -6.2874   -2.2512    0.0000 C   0  0  0  0  0  0  0  0  0  0  0  0
  1  2  2  0
  2  3  1  0
  2  4  1  0
  3  5  1  0
  3  6  1  0
  4  7  1  0
  4  8  1  0
  5  9  2  0
  6 10  1  0
  7 11  1  0
  8 12  1  0
  8 13  1  0
 10 14  1  0
 10 15  1  0
 11 16  1  0
 14 17  1  0
 15 18  1  0
 17 19  1  0
 19 20  1  0
  5  7  1  0
 11 13  1  0
 12 16  2  0
M  END
>  <Structure No>
343

>  <Molecule Name>
N-(2-Ethylhexyl)-5-norbornene-2,3-dicarboximide; MGK-264

>  <PubChem CID>
8227

>  <SMILES>
CCCCC(CC)CN(C(C1C2C3C=CC1C3)=O)C2=O

>  <InChIKey>
WLLGXSLBOPFWQV-UHFFFAOYSA-N

>  <Molecular Formula>
C17H25NO2

>  <Target Organism>
Acyrthosiphon pisum

>  <Reference DOI>
10.1007/978-3-031-07434-9_5

>  <Activity Label>
1

>  <Repellency>
Active

>  <IUPAC>
4-(2-ethylhexyl)-4-azatricyclo[5.2.1.02,6]dec-8-ene-3,5-dione

>  <Common name>
N-(2-Ethylhexyl)-5-norbornene-2,3-dicarboximide; MGK-264

$$$$
Compound 344
     RDKit          2D

 22 21  0  0  0  0  0  0  0  0999 V2000
    0.0000    0.0000    0.0000 O   0  0  0  0  0  0  0  0  0  0  0  0
    0.0000   -1.4995    0.0000 C   0  0  0  0  0  0  0  0  0  0  0  0
    1.2988   -2.2552    0.0000 O   0  0  0  0  0  0  0  0  0  0  0  0
   -1.2988   -2.2552    0.0000 C   0  0  0  0  0  0  0  0  0  0  0  0
    2.5976   -1.5113    0.0000 C   0  0  0  0  0  0  0  0  0  0  0  0
   -2.5976   -1.5113    0.0000 C   0  0  0  0  0  0  0  0  0  0  0  0
    3.8965   -2.2670    0.0000 C   0  0  0  0  0  0  0  0  0  0  0  0
   -3.8965   -2.2670    0.0000 C   0  0  0  0  0  0  0  0  0  0  0  0
    5.1953   -1.5231    0.0000 C   0  0  0  0  0  0  0  0  0  0  0  0
   -5.1953   -1.5231    0.0000 C   0  0  0  0  0  0  0  0  0  0  0  0
    6.4941   -2.2788    0.0000 C   0  0  0  0  0  0  0  0  0  0  0  0
   -6.4941   -2.2788    0.0000 C   0  0  0  0  0  0  0  0  0  0  0  0
    7.7930   -1.5349    0.0000 C   0  0  0  0  0  0  0  0  0  0  0  0
   -7.7930   -1.5349    0.0000 C   0  0  0  0  0  0  0  0  0  0  0  0
    9.0918   -2.2906    0.0000 C   0  0  0  0  0  0  0  0  0  0  0  0
   -9.0918   -2.2906    0.0000 C   0  0  0  0  0  0  0  0  0  0  0  0
   10.3906   -1.5467    0.0000 C   0  0  0  0  0  0  0  0  0  0  0  0
  -10.3906   -1.5467    0.0000 C   0  0  0  0  0  0  0  0  0  0  0  0
   11.6895   -2.3024    0.0000 C   0  0  0  0  0  0  0  0  0  0  0  0
  -11.6895   -2.3024    0.0000 C   0  0  0  0  0  0  0  0  0  0  0  0
  -12.9883   -1.5586    0.0000 C   0  0  0  0  0  0  0  0  0  0  0  0
  -14.2872   -2.3142    0.0000 C   0  0  0  0  0  0  0  0  0  0  0  0
  1  2  2  0
  2  3  1  0
  2  4  1  0
  3  5  1  0
  4  6  1  0
  5  7  1  0
  6  8  1  0
  7  9  1  0
  8 10  1  0
  9 11  1  0
 10 12  1  0
 11 13  1  0
 12 14  1  0
 13 15  1  0
 14 16  1  0
 15 17  1  0
 16 18  1  0
 17 19  1  0
 18 20  1  0
 20 21  1  0
 21 22  1  0
M  END
>  <Structure No>
344

>  <Molecule Name>
Caprylyl laurate

>  <PubChem CID>
79185

>  <SMILES>
CCCCCCCCCCCC(OCCCCCCCC)=O

>  <InChIKey>
BBZAGOMQOSEWBH-UHFFFAOYSA-N

>  <Molecular Formula>
C20H40O2

>  <Target Organism>
Aedes aegypti

>  <Reference DOI>
10.1002/ps.5994

>  <Activity Label>
1

>  <Repellency>
Active

>  <IUPAC>


>  <Common name>
Caprylyl laurate

$$$$
Compound 345
     RDKit          2D

 22 21  0  0  0  0  0  0  0  0999 V2000
    0.0000    0.0000    0.0000 O   0  0  0  0  0  0  0  0  0  0  0  0
   -0.0359    1.5227    0.0000 C   0  0  0  0  0  0  0  0  0  0  0  0
    1.2110    2.2901    0.0000 O   0  0  0  0  0  0  0  0  0  0  0  0
   -1.3549    2.2901    0.0000 C   0  0  0  0  0  0  0  0  0  0  0  0
    1.1750    3.8129    0.0000 C   0  0  0  0  0  0  0  0  0  0  0  0
   -1.3908    0.8393    0.0000 O   0  0  0  0  0  0  0  0  0  0  0  0
   -0.1079    3.0575    0.0000 C   0  0  0  0  0  0  0  0  0  0  0  0
   -2.6738    3.0575    0.0000 C   0  0  0  0  0  0  0  0  0  0  0  0
    2.4220    4.5803    0.0000 C   0  0  0  0  0  0  0  0  0  0  0  0
   -0.1438    4.5803    0.0000 C   0  0  0  0  0  0  0  0  0  0  0  0
   -3.9928    2.3381    0.0000 C   0  0  0  0  0  0  0  0  0  0  0  0
    2.3861    6.1031    0.0000 C   0  0  0  0  0  0  0  0  0  0  0  0
   -1.4628    5.3477    0.0000 O   0  0  0  0  0  0  0  0  0  0  0  0
    1.1031    5.3477    0.0000 O   0  0  0  0  0  0  0  0  0  0  0  0
   -4.0288    0.8872    0.0000 O   0  0  0  0  0  0  0  0  0  0  0  0
   -5.3117    3.1055    0.0000 O   0  0  0  0  0  0  0  0  0  0  0  0
    1.0671    6.8705    0.0000 C   0  0  0  0  0  0  0  0  0  0  0  0
   -6.6307    2.3861    0.0000 C   0  0  0  0  0  0  0  0  0  0  0  0
    2.3141    7.6379    0.0000 C   0  0  0  0  0  0  0  0  0  0  0  0
   -7.9497    3.1535    0.0000 C   0  0  0  0  0  0  0  0  0  0  0  0
    2.2781    9.1607    0.0000 C   0  0  0  0  0  0  0  0  0  0  0  0
   -9.2686    2.4340    0.0000 C   0  0  0  0  0  0  0  0  0  0  0  0
  1  2  2  0
  2  3  1  0
  2  4  1  0
  3  5  1  0
  4  6  1  0
  4  7  1  0
  4  8  1  0
  5  9  1  0
  7 10  1  0
  8 11  1  0
  9 12  1  0
 10 13  2  0
 10 14  1  0
 11 15  2  0
 11 16  1  0
 14 17  1  0
 16 18  1  0
 17 19  1  0
 18 20  1  0
 19 21  1  0
 20 22  1  0
M  END
>  <Structure No>
345

>  <Molecule Name>
Tripropyl citrate

>  <PubChem CID>
74113

>  <SMILES>
CCCOC(CC(CC(OCCC)=O)(C(OCCC)=O)O)=O

>  <InChIKey>
ODHUFJLMXDXVRC-UHFFFAOYSA-N

>  <Molecular Formula>
C15H26O7

>  <Target Organism>
Aedes aegypti

>  <Reference DOI>
10.3390/toxics11100837

>  <Activity Label>
1

>  <Repellency>
Active

>  <IUPAC>
tripropyl 2-hydroxypropane-1,2,3-tricarboxylate

>  <Common name>
Tripropyl citrate

$$$$
Compound 346
     RDKit          2D

  0  0  0  0  0  0  0  0  0  0999 V3000
M  V30 BEGIN CTAB
M  V30 COUNTS 26 28 0 0 0
M  V30 BEGIN ATOM
M  V30 1 Cl 0.000000 0.000000 0.000000 0
M  V30 2 C -0.011800 1.506800 0.000000 0
M  V30 3 Cl -1.317000 2.266200 0.000000 0
M  V30 4 C 1.269500 2.266200 0.000000 0
M  V30 5 C 1.257600 3.773000 0.000000 0
M  V30 6 C 2.005100 5.078200 0.000000 0
M  V30 7 C 0.510100 5.078200 0.000000 0
M  V30 8 C 3.488300 5.090000 0.000000 0
M  V30 9 C 2.752600 6.383300 0.000000 0
M  V30 10 C -0.794900 5.825700 0.000000 0
M  V30 11 O -0.806800 7.332500 0.000000 0
M  V30 12 O -2.100100 5.078200 0.000000 0
M  V30 13 C -3.405200 5.825700 0.000000 0
M  V30 14 C -4.710400 5.078200 0.000000 0
M  V30 15 C -6.015500 5.825700 0.000000 0
M  V30 16 C -4.722200 3.595100 0.000000 0
M  V30 17 C -7.320700 5.078200 0.000000 0
M  V30 18 C -6.027400 2.847600 0.000000 0
M  V30 19 O -8.625800 5.825700 0.000000 0
M  V30 20 C -7.332500 3.595100 0.000000 0
M  V30 21 C -9.931000 5.078200 0.000000 0
M  V30 22 C -11.236100 5.825700 0.000000 0
M  V30 23 C -9.942800 3.595100 0.000000 0
M  V30 24 C -12.541300 5.078200 0.000000 0
M  V30 25 C -11.248000 2.847600 0.000000 0
M  V30 26 C -12.553100 3.595100 0.000000 0
M  V30 END ATOM
M  V30 BEGIN BOND
M  V30 1 1 1 2
M  V30 2 1 2 3
M  V30 3 2 2 4
M  V30 4 1 5 4 CFG=1
M  V30 5 1 5 6
M  V30 6 1 5 7
M  V30 7 1 6 8
M  V30 8 1 6 9
M  V30 9 1 7 10 CFG=3
M  V30 10 2 10 11
M  V30 11 1 10 12
M  V30 12 1 12 13
M  V30 13 1 13 14
M  V30 14 2 14 15
M  V30 15 1 14 16
M  V30 16 1 15 17
M  V30 17 2 16 18
M  V30 18 1 17 19
M  V30 19 2 17 20
M  V30 20 1 19 21
M  V30 21 2 21 22
M  V30 22 1 21 23
M  V30 23 1 22 24
M  V30 24 2 23 25
M  V30 25 2 24 26
M  V30 26 1 6 7
M  V30 27 1 18 20
M  V30 28 1 25 26
M  V30 END BOND
M  V30 BEGIN COLLECTION
M  V30 MDLV30/STEABS ATOMS=(2 5 7)
M  V30 END COLLECTION
M  V30 END CTAB
M  END
>  <Structure No>
346

>  <Molecule Name>
(-)-trans-Permethrin

>  <PubChem CID>
43859

>  <SMILES>
CC(C)([C@H]1C=C(Cl)Cl)[C@H]1C(OCc1cc(Oc2ccccc2)ccc1)=O

>  <InChIKey>
RLLPVAHGXHCWKJ-PKOBYXMFSA-N

>  <Molecular Formula>
C21H20O3Cl2

>  <Target Organism>
Aedes aegypti

>  <Reference DOI>
10.1021/acs.jafc.3c01839

>  <Activity Label>
1

>  <Repellency>
Active

>  <IUPAC>
cis-(3-phenoxyphenyl)methyl (1S,3R)-3-(2,2-dichloroethenyl)-2,2-dimethylcyclopropane-1-carboxylate

>  <Common name>
(-)-trans-Permethrin

$$$$
Compound 347
     RDKit          2D

 26 25  0  0  0  0  0  0  0  0999 V2000
    0.0000    0.0000    0.0000 O   0  0  0  0  0  0  0  0  0  0  0  0
    0.0000   -1.4996    0.0000 C   0  0  0  0  0  0  0  0  0  0  0  0
   -1.2988   -2.2553    0.0000 O   0  0  0  0  0  0  0  0  0  0  0  0
    1.2988   -2.2553    0.0000 C   0  0  0  0  0  0  0  0  0  0  0  0
   -2.5977   -1.5114    0.0000 C   0  0  0  0  0  0  0  0  0  0  0  0
    2.5977   -1.5114    0.0000 C   0  0  0  0  0  0  0  0  0  0  0  0
   -3.8966   -2.2671    0.0000 C   0  0  0  0  0  0  0  0  0  0  0  0
    3.8966   -2.2671    0.0000 C   0  0  0  0  0  0  0  0  0  0  0  0
   -5.1955   -1.5232    0.0000 C   0  0  0  0  0  0  0  0  0  0  0  0
    5.1955   -1.5232    0.0000 C   0  0  0  0  0  0  0  0  0  0  0  0
   -6.4943   -2.2789    0.0000 C   0  0  0  0  0  0  0  0  0  0  0  0
    6.4943   -2.2789    0.0000 C   0  0  0  0  0  0  0  0  0  0  0  0
   -7.7932   -1.5350    0.0000 C   0  0  0  0  0  0  0  0  0  0  0  0
    7.7932   -1.5350    0.0000 C   0  0  0  0  0  0  0  0  0  0  0  0
   -9.0921   -2.2907    0.0000 C   0  0  0  0  0  0  0  0  0  0  0  0
    9.0921   -2.2907    0.0000 C   0  0  0  0  0  0  0  0  0  0  0  0
  -10.3910   -1.5468    0.0000 C   0  0  0  0  0  0  0  0  0  0  0  0
   10.3910   -1.5468    0.0000 C   0  0  0  0  0  0  0  0  0  0  0  0
  -11.6898   -2.3025    0.0000 C   0  0  0  0  0  0  0  0  0  0  0  0
   11.6898   -2.3025    0.0000 C   0  0  0  0  0  0  0  0  0  0  0  0
  -12.9887   -1.5586    0.0000 C   0  0  0  0  0  0  0  0  0  0  0  0
   12.9887   -1.5586    0.0000 C   0  0  0  0  0  0  0  0  0  0  0  0
  -14.2876   -2.3143    0.0000 C   0  0  0  0  0  0  0  0  0  0  0  0
   14.2876   -2.3143    0.0000 C   0  0  0  0  0  0  0  0  0  0  0  0
  -15.5865   -1.5704    0.0000 C   0  0  0  0  0  0  0  0  0  0  0  0
  -16.8853   -2.3261    0.0000 C   0  0  0  0  0  0  0  0  0  0  0  0
  1  2  2  0
  2  3  1  0
  2  4  1  0
  3  5  1  0
  4  6  1  0
  5  7  1  0
  6  8  1  0
  7  9  1  0
  8 10  1  0
  9 11  1  0
 10 12  1  0
 11 13  1  0
 12 14  1  0
 13 15  1  0
 14 16  1  0
 15 17  1  0
 16 18  1  0
 17 19  1  0
 18 20  1  0
 19 21  1  0
 20 22  1  0
 21 23  1  0
 22 24  1  0
 23 25  1  0
 25 26  1  0
M  END
>  <Structure No>
347

>  <Molecule Name>
Lauryl Laurate

>  <PubChem CID>
84113

>  <SMILES>
CCCCCCCCCCCCOC(CCCCCCCCCCC)=O

>  <InChIKey>
CYUUZGXOQDCCGH-UHFFFAOYSA-N

>  <Molecular Formula>
C24H48O2

>  <Target Organism>
Aedes aegypti

>  <Reference DOI>
10.1002/ps.5994

>  <Activity Label>
1

>  <Repellency>
Active

>  <IUPAC>


>  <Common name>
Lauryl Laurate

$$$$
Compound 348
     RDKit          2D

 27 30  0  0  0  0  0  0  0  0999 V2000
    0.0000    0.0000    0.0000 O   0  0  0  0  0  0  0  0  0  0  0  0
   -1.4388   -0.4110    0.0000 C   0  0  0  0  0  0  0  0  0  0  0  0
    0.8450   -1.1647    0.0000 C   0  0  0  0  0  0  0  0  0  0  0  0
   -1.4730   -1.8613    0.0000 C   0  0  0  0  0  0  0  0  0  0  0  0
   -2.7634    0.3768    0.0000 C   0  0  0  0  0  0  0  0  0  0  0  0
   -0.0685   -2.3294    0.0000 O   0  0  0  0  0  0  0  0  0  0  0  0
   -2.7976   -2.5578    0.0000 C   0  0  0  0  0  0  0  0  0  0  0  0
   -4.0880   -0.3197    0.0000 C   0  0  0  0  0  0  0  0  0  0  0  0
   -4.1222   -1.7699    0.0000 C   0  0  0  0  0  0  0  0  0  0  0  0
   -5.4126    0.4681    0.0000 C   0  0  0  0  0  0  0  0  0  0  0  0
   -6.7372   -0.2283    0.0000 C   0  0  0  0  0  0  0  0  0  0  0  0
   -8.0618    0.5481    0.0000 C   0  0  0  0  0  0  0  0  0  0  0  0
   -9.3864   -0.1484    0.0000 C   0  0  0  0  0  0  0  0  0  0  0  0
  -10.7111    0.6280    0.0000 O   0  0  0  0  0  0  0  0  0  0  0  0
  -12.0357   -0.0685    0.0000 C   0  0  0  0  0  0  0  0  0  0  0  0
  -13.3603    0.7079    0.0000 C   0  0  0  0  0  0  0  0  0  0  0  0
  -14.6849    0.0114    0.0000 C   0  0  0  0  0  0  0  0  0  0  0  0
  -16.0095    0.7879    0.0000 C   0  0  0  0  0  0  0  0  0  0  0  0
  -17.3341    0.0913    0.0000 C   0  0  0  0  0  0  0  0  0  0  0  0
  -18.6588    0.8678    0.0000 C   0  0  0  0  0  0  0  0  0  0  0  0
  -17.3684   -1.3588    0.0000 C   0  0  0  0  0  0  0  0  0  0  0  0
  -19.9834    0.1712    0.0000 C   0  0  0  0  0  0  0  0  0  0  0  0
  -18.6930   -2.0896    0.0000 C   0  0  0  0  0  0  0  0  0  0  0  0
  -21.4222    0.6508    0.0000 O   0  0  0  0  0  0  0  0  0  0  0  0
  -20.0176   -1.2789    0.0000 C   0  0  0  0  0  0  0  0  0  0  0  0
  -22.3357   -0.5138    0.0000 C   0  0  0  0  0  0  0  0  0  0  0  0
  -21.4564   -1.6900    0.0000 O   0  0  0  0  0  0  0  0  0  0  0  0
  1  2  1  0
  1  3  1  0
  2  4  2  0
  2  5  1  0
  3  6  1  0
  4  7  1  0
  5  8  2  0
  7  9  2  0
  8 10  1  0
 10 11  1  0
 11 12  1  0
 12 13  1  0
 13 14  1  0
 14 15  1  0
 15 16  1  0
 16 17  1  0
 17 18  1  0
 18 19  1  0
 19 20  2  0
 19 21  1  0
 20 22  1  0
 21 23  2  0
 22 24  1  0
 22 25  2  0
 24 26  1  0
 25 27  1  0
  4  6  1  0
  8  9  1  0
 23 25  1  0
 26 27  1  0
M  END
>  <Structure No>
348

>  <Molecule Name>
5-[4-[4-(1,3-Benzodioxol-5-yl)butoxy]butyl]-1,3-benzodioxole

>  <PubChem CID>
141224260

>  <SMILES>
C(CCOCCCCc(cc1)cc2c1OCO2)Cc(cc1)cc2c1OCO2

>  <InChIKey>
CMNIOEMEVLGZGE-UHFFFAOYSA-N

>  <Molecular Formula>
C22H26O5

>  <Target Organism>
Aedes aegypti

>  <Reference DOI>
10.1371/annotation/1dc83f26-8045-4b63-8a86-24c7b71a7f79

>  <Activity Label>
1

>  <Repellency>
Active

>  <IUPAC>
5-[4-[4-(1,3-benzodioxol-5-yl)butoxy]butyl]-1,3-benzodioxole

>  <Common name>
5-[4-[4-(1,3-Benzodioxol-5-yl)butoxy]butyl]-1,3-benzodioxole

$$$$
Compound 349
     RDKit          2D

  0  0  0  0  0  0  0  0  0  0999 V3000
M  V30 BEGIN CTAB
M  V30 COUNTS 29 33 0 0 0
M  V30 BEGIN ATOM
M  V30 1 O 0.000000 0.000000 0.000000 0
M  V30 2 C 1.141000 -0.687300 0.000000 0
M  V30 3 C 1.017300 -2.048400 0.000000 0
M  V30 4 C 2.282100 0.178700 0.000000 0
M  V30 5 C 2.158400 -2.735800 0.000000 0
M  V30 6 C -0.453600 -2.735800 0.000000 0
M  V30 7 C 2.130900 1.855900 0.000000 0
M  V30 8 C 3.423200 -0.508600 0.000000 0
M  V30 9 O 3.299500 -1.855900 0.000000 0
M  V30 10 C 2.062100 -4.165600 0.000000 0
M  V30 11 C -0.591100 -4.165600 0.000000 0
M  V30 12 C 3.327000 2.735800 0.000000 0
M  V30 13 C 0.604900 2.735800 0.000000 0
M  V30 14 C 4.646800 0.357400 0.000000 0
M  V30 15 C 0.618600 -4.894200 0.000000 0
M  V30 16 C 3.052000 -5.045500 0.000000 0
M  V30 17 O 4.536800 2.020900 0.000000 0
M  V30 18 C 3.217000 4.481800 0.000000 0
M  V30 19 C 0.453600 4.481800 0.000000 0
M  V30 20 O 0.852300 -6.269000 0.000000 0
M  V30 21 C 2.254600 -6.324000 0.000000 0
M  V30 22 C 1.704700 5.361700 0.000000 0
M  V30 23 O -0.948600 5.361700 0.000000 0
M  V30 24 C 2.942000 -7.465100 0.000000 0
M  V30 25 O 1.581000 6.970200 0.000000 0
M  V30 26 C -1.086000 6.970200 0.000000 0
M  V30 27 C 4.303100 -7.327600 0.000000 0
M  V30 28 C 2.062100 -8.619900 0.000000 0
M  V30 29 C 2.722000 7.850000 0.000000 0
M  V30 END ATOM
M  V30 BEGIN BOND
M  V30 1 2 1 2
M  V30 2 1 2 3
M  V30 3 1 4 2 CFG=1
M  V30 4 2 3 5
M  V30 5 1 3 6
M  V30 6 1 4 7
M  V30 7 1 4 8
M  V30 8 1 5 9
M  V30 9 1 5 10
M  V30 10 2 6 11
M  V30 11 2 7 12
M  V30 12 1 7 13
M  V30 13 1 8 14 CFG=1
M  V30 14 2 10 15
M  V30 15 1 10 16
M  V30 16 1 12 17
M  V30 17 1 12 18
M  V30 18 2 13 19
M  V30 19 1 15 20
M  V30 20 1 16 21
M  V30 21 2 18 22
M  V30 22 1 19 23
M  V30 23 1 21 24 CFG=3
M  V30 24 1 22 25
M  V30 25 1 23 26
M  V30 26 2 24 27
M  V30 27 1 24 28
M  V30 28 1 25 29
M  V30 29 1 8 9
M  V30 30 1 11 15
M  V30 31 1 14 17
M  V30 32 1 19 22
M  V30 33 1 20 21
M  V30 END BOND
M  V30 BEGIN COLLECTION
M  V30 MDLV30/STEABS ATOMS=(3 4 8 21)
M  V30 END COLLECTION
M  V30 END CTAB
M  END
>  <Structure No>
349

>  <Molecule Name>
Rotenone

>  <PubChem CID>
6758

>  <SMILES>
CC([C@@H](C1)Oc(cc2)c1c(O[C@H]1[C@@H]3c(cc(c(OC)c4)OC)c4OC1)c2C3=O)=C

>  <InChIKey>
JUVIOZPCNVVQFO-HBGVWJBISA-N

>  <Molecular Formula>
C23H22O6

>  <Target Organism>
Anopheles spp.

>  <Reference DOI>
10.1186/s13071-017-2122-8

>  <Activity Label>
1

>  <Repellency>
Active

>  <IUPAC>
(1S,6R,13S)-16,17-dimethoxy-6-prop-1-en-2-yl-2,7,20-trioxapentacyclo[11.8.0.03,11.04,8.014,19]henicosa-3(11),4(8),9,14,16,18-hexaen-12-one

>  <Common name>
Rotenone

$$$$
Compound 350
     RDKit          2D

 30 30  0  0  0  0  0  0  0  0999 V2000
    0.0000    0.0000    0.0000 O   0  0  0  0  0  0  0  0  0  0  0  0
    0.5636   -1.2976    0.0000 C   0  0  0  0  0  0  0  0  0  0  0  0
    1.9923   -1.3501    0.0000 O   0  0  0  0  0  0  0  0  0  0  0  0
   -0.4325   -2.4249    0.0000 C   0  0  0  0  0  0  0  0  0  0  0  0
    2.5560   -2.6477    0.0000 N   0  0  0  0  0  0  0  0  0  0  0  0
   -2.0972   -2.1365    0.0000 C   0  0  0  0  0  0  0  0  0  0  0  0
    3.9847   -2.7002    0.0000 C   0  0  0  0  0  0  0  0  0  0  0  0
    4.8761   -1.4549    0.0000 C   0  0  0  0  0  0  0  0  0  0  0  0
    4.6926   -3.9192    0.0000 C   0  0  0  0  0  0  0  0  0  0  0  0
    6.1738   -2.0186    0.0000 C   0  0  0  0  0  0  0  0  0  0  0  0
    4.4173    0.1835    0.0000 C   0  0  0  0  0  0  0  0  0  0  0  0
    6.0951   -3.4604    0.0000 C   0  0  0  0  0  0  0  0  0  0  0  0
    7.3928   -1.1797    0.0000 C   0  0  0  0  0  0  0  0  0  0  0  0
    2.8181    0.8126    0.0000 C   0  0  0  0  0  0  0  0  0  0  0  0
    8.6118   -1.9006    0.0000 C   0  0  0  0  0  0  0  0  0  0  0  0
    2.3594    2.4511    0.0000 C   0  0  0  0  0  0  0  0  0  0  0  0
    9.8309   -1.0617    0.0000 O   0  0  0  0  0  0  0  0  0  0  0  0
    8.4939   -3.3425    0.0000 C   0  0  0  0  0  0  0  0  0  0  0  0
    0.7602    3.0803    0.0000 C   0  0  0  0  0  0  0  0  0  0  0  0
   11.0499   -1.7826    0.0000 C   0  0  0  0  0  0  0  0  0  0  0  0
    0.3014    4.7188    0.0000 C   0  0  0  0  0  0  0  0  0  0  0  0
   12.2689   -0.9437    0.0000 C   0  0  0  0  0  0  0  0  0  0  0  0
   13.4880   -1.6647    0.0000 C   0  0  0  0  0  0  0  0  0  0  0  0
   14.7070   -0.8257    0.0000 C   0  0  0  0  0  0  0  0  0  0  0  0
   13.3700   -3.1065    0.0000 C   0  0  0  0  0  0  0  0  0  0  0  0
   15.9260   -1.5467    0.0000 C   0  0  0  0  0  0  0  0  0  0  0  0
   17.1451   -0.7078    0.0000 C   0  0  0  0  0  0  0  0  0  0  0  0
   18.3641   -1.4287    0.0000 C   0  0  0  0  0  0  0  0  0  0  0  0
   19.5831   -0.5898    0.0000 C   0  0  0  0  0  0  0  0  0  0  0  0
   18.2461   -2.8706    0.0000 C   0  0  0  0  0  0  0  0  0  0  0  0
  1  2  2  0
  2  3  1  0
  2  4  1  0
  3  5  1  0
  4  6  1  0
  5  7  2  0
  7  8  1  0
  7  9  1  0
  8 10  1  0
  8 11  1  0
  9 12  1  0
 10 13  1  0
 11 14  1  0
 13 15  1  0
 14 16  1  0
 15 17  1  0
 15 18  2  0
 16 19  1  0
 17 20  1  0
 19 21  1  0
 20 22  1  0
 22 23  2  0
 23 24  1  0
 23 25  1  0
 24 26  1  0
 26 27  1  0
 27 28  2  0
 28 29  1  0
 28 30  1  0
 10 12  1  0
M  END
>  <Structure No>
350

>  <Molecule Name>
5

>  <PubChem CID>
Not found

>  <SMILES>
CCCCCC(C(CC(OC/C=C(\C)/CCC=C(C)C)=C)CC1)/C\1=N\OC(CC)=O

>  <InChIKey>
LGRXROAWYJSBMY-LKYVFCPNSA-N

>  <Molecular Formula>
C26H43NO3

>  <Target Organism>
Acyrthosiphon pisum

>  <Reference DOI>
10.1021/acs.jafc.2c04126

>  <Activity Label>
1

>  <Repellency>
Active

>  <IUPAC>


>  <Common name>
5

$$$$
Compound 351
     RDKit          2D

 31 32  0  0  0  0  0  0  0  0999 V2000
    0.0000    0.0000    0.0000 O   0  0  0  0  0  0  0  0  0  0  0  0
    0.7885    1.3444    0.0000 C   0  0  0  0  0  0  0  0  0  0  0  0
    2.1975    1.2927    0.0000 O   0  0  0  0  0  0  0  0  0  0  0  0
    0.0000    2.8568    0.0000 C   0  0  0  0  0  0  0  0  0  0  0  0
    2.7534    0.0129    0.0000 N   0  0  0  0  0  0  0  0  0  0  0  0
   -1.3444    3.8393    0.0000 C   0  0  0  0  0  0  0  0  0  0  0  0
    0.0517    4.4986    0.0000 C   0  0  0  0  0  0  0  0  0  0  0  0
    4.1624   -0.0387    0.0000 C   0  0  0  0  0  0  0  0  0  0  0  0
    5.0415    1.1892    0.0000 C   0  0  0  0  0  0  0  0  0  0  0  0
    4.8734   -1.2409    0.0000 C   0  0  0  0  0  0  0  0  0  0  0  0
    6.3213    0.6334    0.0000 C   0  0  0  0  0  0  0  0  0  0  0  0
    4.5890    2.8051    0.0000 C   0  0  0  0  0  0  0  0  0  0  0  0
    6.2566   -0.7885    0.0000 C   0  0  0  0  0  0  0  0  0  0  0  0
    7.5235    1.4736    0.0000 C   0  0  0  0  0  0  0  0  0  0  0  0
    3.0119    3.4256    0.0000 C   0  0  0  0  0  0  0  0  0  0  0  0
    8.7257    0.7626    0.0000 C   0  0  0  0  0  0  0  0  0  0  0  0
    2.5595    5.0415    0.0000 C   0  0  0  0  0  0  0  0  0  0  0  0
    9.9279    1.6029    0.0000 O   0  0  0  0  0  0  0  0  0  0  0  0
    8.6093   -0.6592    0.0000 C   0  0  0  0  0  0  0  0  0  0  0  0
    0.9824    5.6620    0.0000 C   0  0  0  0  0  0  0  0  0  0  0  0
   11.1301    0.8919    0.0000 C   0  0  0  0  0  0  0  0  0  0  0  0
    0.5300    7.2779    0.0000 C   0  0  0  0  0  0  0  0  0  0  0  0
   12.3323    1.7322    0.0000 C   0  0  0  0  0  0  0  0  0  0  0  0
   13.5345    1.0212    0.0000 C   0  0  0  0  0  0  0  0  0  0  0  0
   14.7367    1.8614    0.0000 C   0  0  0  0  0  0  0  0  0  0  0  0
   13.4182   -0.4007    0.0000 C   0  0  0  0  0  0  0  0  0  0  0  0
   15.9390    1.1505    0.0000 C   0  0  0  0  0  0  0  0  0  0  0  0
   17.1412    1.9907    0.0000 C   0  0  0  0  0  0  0  0  0  0  0  0
   18.3434    1.2797    0.0000 C   0  0  0  0  0  0  0  0  0  0  0  0
   19.5456    2.1200    0.0000 C   0  0  0  0  0  0  0  0  0  0  0  0
   18.2270   -0.1421    0.0000 C   0  0  0  0  0  0  0  0  0  0  0  0
  1  2  2  0
  2  3  1  0
  2  4  1  0
  3  5  1  0
  4  6  1  0
  4  7  1  0
  5  8  2  0
  8  9  1  0
  8 10  1  0
  9 11  1  0
  9 12  1  0
 10 13  1  0
 11 14  1  0
 12 15  1  0
 14 16  1  0
 15 17  1  0
 16 18  1  0
 16 19  2  0
 17 20  1  0
 18 21  1  0
 20 22  1  0
 21 23  1  0
 23 24  2  0
 24 25  1  0
 24 26  1  0
 25 27  1  0
 27 28  1  0
 28 29  2  0
 29 30  1  0
 29 31  1  0
  6  7  1  0
 11 13  1  0
M  END
>  <Structure No>
351

>  <Molecule Name>
6

>  <PubChem CID>
Not found

>  <SMILES>
CCCCCC(C(CC(OC/C=C(\C)/CCC=C(C)C)=C)CC1)/C\1=N\OC(C1CC1)=O

>  <InChIKey>
LICRVGGUWYCAGY-JAAYKZSGSA-N

>  <Molecular Formula>
C27H43NO3

>  <Target Organism>
Acyrthosiphon pisum

>  <Reference DOI>
10.1021/acs.jafc.2c04126

>  <Activity Label>
1

>  <Repellency>
Active

>  <IUPAC>


>  <Common name>
6

$$$$
Compound 352
     RDKit          2D

 31 31  0  0  0  0  0  0  0  0999 V2000
    0.0000    0.0000    0.0000 O   0  0  0  0  0  0  0  0  0  0  0  0
    1.1432    0.7953    0.0000 C   0  0  0  0  0  0  0  0  0  0  0  0
    1.0314    2.3735    0.0000 O   0  0  0  0  0  0  0  0  0  0  0  0
    2.2865    0.1118    0.0000 C   0  0  0  0  0  0  0  0  0  0  0  0
    2.1746    3.1688    0.0000 N   0  0  0  0  0  0  0  0  0  0  0  0
    3.4298    0.9071    0.0000 C   0  0  0  0  0  0  0  0  0  0  0  0
    2.0628    4.7470    0.0000 C   0  0  0  0  0  0  0  0  0  0  0  0
    3.3179    2.4853    0.0000 C   0  0  0  0  0  0  0  0  0  0  0  0
    0.7828    5.6790    0.0000 C   0  0  0  0  0  0  0  0  0  0  0  0
    3.1191    5.6790    0.0000 C   0  0  0  0  0  0  0  0  0  0  0  0
    1.1556    7.1826    0.0000 C   0  0  0  0  0  0  0  0  0  0  0  0
   -0.7207    5.3062    0.0000 C   0  0  0  0  0  0  0  0  0  0  0  0
    2.5226    7.1826    0.0000 C   0  0  0  0  0  0  0  0  0  0  0  0
    0.2236    8.4626    0.0000 C   0  0  0  0  0  0  0  0  0  0  0  0
   -1.1556    3.9890    0.0000 C   0  0  0  0  0  0  0  0  0  0  0  0
    0.7580    9.9041    0.0000 C   0  0  0  0  0  0  0  0  0  0  0  0
   -2.6593    3.6162    0.0000 C   0  0  0  0  0  0  0  0  0  0  0  0
   -0.1739   11.1841    0.0000 O   0  0  0  0  0  0  0  0  0  0  0  0
    2.1001   10.1775    0.0000 C   0  0  0  0  0  0  0  0  0  0  0  0
   -3.0942    2.2989    0.0000 C   0  0  0  0  0  0  0  0  0  0  0  0
    0.3603   12.6256    0.0000 C   0  0  0  0  0  0  0  0  0  0  0  0
   -4.5979    1.9261    0.0000 C   0  0  0  0  0  0  0  0  0  0  0  0
   -0.5716   13.9056    0.0000 C   0  0  0  0  0  0  0  0  0  0  0  0
   -0.0372   15.3471    0.0000 C   0  0  0  0  0  0  0  0  0  0  0  0
   -0.9692   16.6270    0.0000 C   0  0  0  0  0  0  0  0  0  0  0  0
    1.3048   15.6205    0.0000 C   0  0  0  0  0  0  0  0  0  0  0  0
   -0.4349   18.0685    0.0000 C   0  0  0  0  0  0  0  0  0  0  0  0
   -1.3669   19.3485    0.0000 C   0  0  0  0  0  0  0  0  0  0  0  0
   -0.8325   20.7900    0.0000 C   0  0  0  0  0  0  0  0  0  0  0  0
   -1.7646   22.0700    0.0000 C   0  0  0  0  0  0  0  0  0  0  0  0
    0.5094   21.0634    0.0000 C   0  0  0  0  0  0  0  0  0  0  0  0
  1  2  2  0
  2  3  1  0
  2  4  1  0
  3  5  1  0
  4  6  1  0
  5  7  2  0
  6  8  2  0
  7  9  1  0
  7 10  1  0
  9 11  1  0
  9 12  1  0
 10 13  1  0
 11 14  1  0
 12 15  1  0
 14 16  1  0
 15 17  1  0
 16 18  1  0
 16 19  2  0
 17 20  1  0
 18 21  1  0
 20 22  1  0
 21 23  1  0
 23 24  2  0
 24 25  1  0
 24 26  1  0
 25 27  1  0
 27 28  1  0
 28 29  2  0
 29 30  1  0
 29 31  1  0
 11 13  1  0
M  END
>  <Structure No>
352

>  <Molecule Name>
7

>  <PubChem CID>
Not found

>  <SMILES>
CCCCCC(C(CC(OC/C=C(\C)/CCC=C(C)C)=C)CC1)/C\1=N\OC(CC=C)=O

>  <InChIKey>
KGYIJSNMMDHLCL-JXHDRPAUSA-N

>  <Molecular Formula>
C27H43NO3

>  <Target Organism>
Acyrthosiphon pisum

>  <Reference DOI>
10.1021/acs.jafc.2c04126

>  <Activity Label>
1

>  <Repellency>
Active

>  <IUPAC>


>  <Common name>
7

$$$$
Compound 353
     RDKit          2D

 32 32  0  0  0  0  0  0  0  0999 V2000
    0.0000    0.0000    0.0000 O   0  0  0  0  0  0  0  0  0  0  0  0
   -0.1138   -1.3914    0.0000 C   0  0  0  0  0  0  0  0  0  0  0  0
   -1.5179   -2.0871    0.0000 O   0  0  0  0  0  0  0  0  0  0  0  0
    1.0625   -2.0871    0.0000 C   0  0  0  0  0  0  0  0  0  0  0  0
   -2.9220   -1.2649    0.0000 N   0  0  0  0  0  0  0  0  0  0  0  0
    2.2389   -1.2649    0.0000 C   0  0  0  0  0  0  0  0  0  0  0  0
   -4.3260   -1.9606    0.0000 C   0  0  0  0  0  0  0  0  0  0  0  0
    3.4153   -1.9606    0.0000 C   0  0  0  0  0  0  0  0  0  0  0  0
   -4.6043   -3.3394    0.0000 C   0  0  0  0  0  0  0  0  0  0  0  0
   -5.8060   -1.1890    0.0000 C   0  0  0  0  0  0  0  0  0  0  0  0
    4.5917   -1.1384    0.0000 C   0  0  0  0  0  0  0  0  0  0  0  0
   -6.1855   -3.5544    0.0000 C   0  0  0  0  0  0  0  0  0  0  0  0
   -3.6303   -4.1995    0.0000 C   0  0  0  0  0  0  0  0  0  0  0  0
   -6.8939   -2.1630    0.0000 C   0  0  0  0  0  0  0  0  0  0  0  0
   -6.9571   -4.8067    0.0000 C   0  0  0  0  0  0  0  0  0  0  0  0
   -2.3148   -3.5924    0.0000 C   0  0  0  0  0  0  0  0  0  0  0  0
   -8.5636   -4.8573    0.0000 C   0  0  0  0  0  0  0  0  0  0  0  0
   -1.3408   -4.4525    0.0000 C   0  0  0  0  0  0  0  0  0  0  0  0
   -9.3352   -6.1096    0.0000 O   0  0  0  0  0  0  0  0  0  0  0  0
   -9.5249   -3.5418    0.0000 C   0  0  0  0  0  0  0  0  0  0  0  0
   -0.0252   -3.8454    0.0000 C   0  0  0  0  0  0  0  0  0  0  0  0
  -10.9416   -6.1602    0.0000 C   0  0  0  0  0  0  0  0  0  0  0  0
    0.9487   -4.7055    0.0000 C   0  0  0  0  0  0  0  0  0  0  0  0
  -11.7133   -7.4125    0.0000 C   0  0  0  0  0  0  0  0  0  0  0  0
  -13.3197   -7.4631    0.0000 C   0  0  0  0  0  0  0  0  0  0  0  0
  -14.0913   -8.7154    0.0000 C   0  0  0  0  0  0  0  0  0  0  0  0
  -14.2811   -6.1475    0.0000 C   0  0  0  0  0  0  0  0  0  0  0  0
  -15.6978   -8.7660    0.0000 C   0  0  0  0  0  0  0  0  0  0  0  0
  -16.4694  -10.0182    0.0000 C   0  0  0  0  0  0  0  0  0  0  0  0
  -18.0759  -10.0688    0.0000 C   0  0  0  0  0  0  0  0  0  0  0  0
  -18.8475  -11.3211    0.0000 C   0  0  0  0  0  0  0  0  0  0  0  0
  -19.0372   -8.7533    0.0000 C   0  0  0  0  0  0  0  0  0  0  0  0
  1  2  2  0
  2  3  1  0
  2  4  1  0
  3  5  1  0
  4  6  1  0
  5  7  2  0
  6  8  1  0
  7  9  1  0
  7 10  1  0
  8 11  2  0
  9 12  1  0
  9 13  1  0
 10 14  1  0
 12 15  1  0
 13 16  1  0
 15 17  1  0
 16 18  1  0
 17 19  1  0
 17 20  2  0
 18 21  1  0
 19 22  1  0
 21 23  1  0
 22 24  1  0
 24 25  2  0
 25 26  1  0
 25 27  1  0
 26 28  1  0
 28 29  1  0
 29 30  2  0
 30 31  1  0
 30 32  1  0
 12 14  1  0
M  END
>  <Structure No>
353

>  <Molecule Name>
8

>  <PubChem CID>
Not found

>  <SMILES>
CCCCCC(C(CC(OC/C=C(\C)/CCC=C(C)C)=C)CC1)/C\1=N\OC(CCC=C)=O

>  <InChIKey>
JQJHIMFKUMWFHY-DRPAJOLBSA-N

>  <Molecular Formula>
C28H45NO3

>  <Target Organism>
Acyrthosiphon pisum

>  <Reference DOI>
10.1021/acs.jafc.2c04126

>  <Activity Label>
1

>  <Repellency>
Active

>  <IUPAC>


>  <Common name>
8

$$$$
Compound 354
     RDKit          2D

 32 32  0  0  0  0  0  0  0  0999 V2000
    0.0000    0.0000    0.0000 Cl  0  0  0  0  0  0  0  0  0  0  0  0
   -1.3748   -0.6874    0.0000 C   0  0  0  0  0  0  0  0  0  0  0  0
   -2.7496    0.1124    0.0000 C   0  0  0  0  0  0  0  0  0  0  0  0
   -4.1245   -0.5624    0.0000 C   0  0  0  0  0  0  0  0  0  0  0  0
   -5.4993    0.2374    0.0000 C   0  0  0  0  0  0  0  0  0  0  0  0
   -5.6118    1.8247    0.0000 O   0  0  0  0  0  0  0  0  0  0  0  0
   -6.8742   -0.4499    0.0000 O   0  0  0  0  0  0  0  0  0  0  0  0
   -8.2490    0.3499    0.0000 N   0  0  0  0  0  0  0  0  0  0  0  0
   -9.6239   -0.3374    0.0000 C   0  0  0  0  0  0  0  0  0  0  0  0
   -9.8989   -1.6873    0.0000 C   0  0  0  0  0  0  0  0  0  0  0  0
  -11.0737    0.4249    0.0000 C   0  0  0  0  0  0  0  0  0  0  0  0
  -11.4487   -1.8997    0.0000 C   0  0  0  0  0  0  0  0  0  0  0  0
   -8.9490   -2.5247    0.0000 C   0  0  0  0  0  0  0  0  0  0  0  0
  -12.1361   -0.5249    0.0000 C   0  0  0  0  0  0  0  0  0  0  0  0
  -12.2111   -3.1246    0.0000 C   0  0  0  0  0  0  0  0  0  0  0  0
   -7.6616   -1.9247    0.0000 C   0  0  0  0  0  0  0  0  0  0  0  0
  -13.7859   -3.1746    0.0000 C   0  0  0  0  0  0  0  0  0  0  0  0
   -6.7117   -2.7621    0.0000 C   0  0  0  0  0  0  0  0  0  0  0  0
  -14.5483   -4.3995    0.0000 O   0  0  0  0  0  0  0  0  0  0  0  0
  -14.7233   -1.8872    0.0000 C   0  0  0  0  0  0  0  0  0  0  0  0
   -5.4244   -2.1622    0.0000 C   0  0  0  0  0  0  0  0  0  0  0  0
  -16.1232   -4.4495    0.0000 C   0  0  0  0  0  0  0  0  0  0  0  0
   -4.4745   -2.9996    0.0000 C   0  0  0  0  0  0  0  0  0  0  0  0
  -16.8856   -5.6743    0.0000 C   0  0  0  0  0  0  0  0  0  0  0  0
  -18.4604   -5.7243    0.0000 C   0  0  0  0  0  0  0  0  0  0  0  0
  -19.2228   -6.9492    0.0000 C   0  0  0  0  0  0  0  0  0  0  0  0
  -19.3978   -4.4370    0.0000 C   0  0  0  0  0  0  0  0  0  0  0  0
  -20.7977   -6.9992    0.0000 C   0  0  0  0  0  0  0  0  0  0  0  0
  -21.5601   -8.2240    0.0000 C   0  0  0  0  0  0  0  0  0  0  0  0
  -23.1349   -8.2740    0.0000 C   0  0  0  0  0  0  0  0  0  0  0  0
  -23.8973   -9.4989    0.0000 C   0  0  0  0  0  0  0  0  0  0  0  0
  -24.0723   -6.9867    0.0000 C   0  0  0  0  0  0  0  0  0  0  0  0
  1  2  1  0
  2  3  1  0
  3  4  1  0
  4  5  1  0
  5  6  2  0
  5  7  1  0
  7  8  1  0
  8  9  2  0
  9 10  1  0
  9 11  1  0
 10 12  1  0
 10 13  1  0
 11 14  1  0
 12 15  1  0
 13 16  1  0
 15 17  1  0
 16 18  1  0
 17 19  1  0
 17 20  2  0
 18 21  1  0
 19 22  1  0
 21 23  1  0
 22 24  1  0
 24 25  2  0
 25 26  1  0
 25 27  1  0
 26 28  1  0
 28 29  1  0
 29 30  2  0
 30 31  1  0
 30 32  1  0
 12 14  1  0
M  END
>  <Structure No>
354

>  <Molecule Name>
9

>  <PubChem CID>
Not found

>  <SMILES>
CCCCCC(C(CC(OC/C=C(\C)/CCC=C(C)C)=C)CC1)/C\1=N\OC(CCCCl)=O

>  <InChIKey>
MGOHLGKFUMZMJA-KZEDTELPSA-N

>  <Molecular Formula>
C27H44NO3Cl

>  <Target Organism>
Acyrthosiphon pisum

>  <Reference DOI>
10.1021/acs.jafc.2c04126

>  <Activity Label>
1

>  <Repellency>
Active

>  <IUPAC>


>  <Common name>
9

$$$$
Compound 355
     RDKit          2D

 32 33  0  0  0  0  0  0  0  0999 V2000
    0.0000    0.0000    0.0000 O   0  0  0  0  0  0  0  0  0  0  0  0
    0.7826    1.3380    0.0000 C   0  0  0  0  0  0  0  0  0  0  0  0
    2.1837    1.2875    0.0000 O   0  0  0  0  0  0  0  0  0  0  0  0
    0.0126    2.8400    0.0000 C   0  0  0  0  0  0  0  0  0  0  0  0
    2.7264    0.0126    0.0000 N   0  0  0  0  0  0  0  0  0  0  0  0
   -1.5273    3.5343    0.0000 C   0  0  0  0  0  0  0  0  0  0  0  0
    0.4796    4.3800    0.0000 C   0  0  0  0  0  0  0  0  0  0  0  0
    4.1276   -0.0378    0.0000 C   0  0  0  0  0  0  0  0  0  0  0  0
   -1.0603    5.0743    0.0000 C   0  0  0  0  0  0  0  0  0  0  0  0
    5.0111    1.1865    0.0000 C   0  0  0  0  0  0  0  0  0  0  0  0
    4.8344   -1.2370    0.0000 C   0  0  0  0  0  0  0  0  0  0  0  0
    6.2860    0.6437    0.0000 C   0  0  0  0  0  0  0  0  0  0  0  0
    4.5694    2.7896    0.0000 C   0  0  0  0  0  0  0  0  0  0  0  0
    6.2103   -0.7952    0.0000 C   0  0  0  0  0  0  0  0  0  0  0  0
    7.4852    1.4768    0.0000 C   0  0  0  0  0  0  0  0  0  0  0  0
    3.0041    3.3954    0.0000 C   0  0  0  0  0  0  0  0  0  0  0  0
    8.6843    0.7699    0.0000 C   0  0  0  0  0  0  0  0  0  0  0  0
    2.5623    4.9985    0.0000 C   0  0  0  0  0  0  0  0  0  0  0  0
    9.8835    1.6030    0.0000 O   0  0  0  0  0  0  0  0  0  0  0  0
    8.5707   -0.6437    0.0000 C   0  0  0  0  0  0  0  0  0  0  0  0
    0.9971    5.6044    0.0000 C   0  0  0  0  0  0  0  0  0  0  0  0
   11.0826    0.9088    0.0000 C   0  0  0  0  0  0  0  0  0  0  0  0
    0.5553    7.2075    0.0000 C   0  0  0  0  0  0  0  0  0  0  0  0
   12.2818    1.7419    0.0000 C   0  0  0  0  0  0  0  0  0  0  0  0
   13.4809    1.0476    0.0000 C   0  0  0  0  0  0  0  0  0  0  0  0
   14.6801    1.8807    0.0000 C   0  0  0  0  0  0  0  0  0  0  0  0
   13.3673   -0.3660    0.0000 C   0  0  0  0  0  0  0  0  0  0  0  0
   15.8792    1.1739    0.0000 C   0  0  0  0  0  0  0  0  0  0  0  0
   17.0784    2.0070    0.0000 C   0  0  0  0  0  0  0  0  0  0  0  0
   18.2776    1.3127    0.0000 C   0  0  0  0  0  0  0  0  0  0  0  0
   19.4767    2.1458    0.0000 C   0  0  0  0  0  0  0  0  0  0  0  0
   18.1639   -0.1009    0.0000 C   0  0  0  0  0  0  0  0  0  0  0  0
  1  2  2  0
  2  3  1  0
  2  4  1  0
  3  5  1  0
  4  6  1  0
  4  7  1  0
  5  8  2  0
  6  9  1  0
  8 10  1  0
  8 11  1  0
 10 12  1  0
 10 13  1  0
 11 14  1  0
 12 15  1  0
 13 16  1  0
 15 17  1  0
 16 18  1  0
 17 19  1  0
 17 20  2  0
 18 21  1  0
 19 22  1  0
 21 23  1  0
 22 24  1  0
 24 25  2  0
 25 26  1  0
 25 27  1  0
 26 28  1  0
 28 29  1  0
 29 30  2  0
 30 31  1  0
 30 32  1  0
  7  9  1  0
 12 14  1  0
M  END
>  <Structure No>
355

>  <Molecule Name>
Compound_369

>  <PubChem CID>
Not found

>  <SMILES>
CCCCCC(C(CC(OC/C=C(\C)/CCC=C(C)C)=C)CC1)/C\1=N\OC(C1CCC1)=O

>  <InChIKey>
WWXXEOXENNQCBB-IKBCAMPVSA-N

>  <Molecular Formula>
C28H45NO3

>  <Target Organism>
Acyrthosiphon pisum

>  <Reference DOI>
10.1021/acs.jafc.2c04126

>  <Activity Label>
1

>  <Repellency>
Active

>  <IUPAC>


>  <Common name>
Compound_369

$$$$
Compound 356
     RDKit          2D

 33 34  0  0  0  0  0  0  0  0999 V2000
    0.0000    0.0000    0.0000 O   0  0  0  0  0  0  0  0  0  0  0  0
    0.7840    1.3367    0.0000 C   0  0  0  0  0  0  0  0  0  0  0  0
    2.1850    1.2853    0.0000 O   0  0  0  0  0  0  0  0  0  0  0  0
    0.0000    2.8405    0.0000 C   0  0  0  0  0  0  0  0  0  0  0  0
    2.7377    0.0128    0.0000 N   0  0  0  0  0  0  0  0  0  0  0  0
    0.6940    4.2673    0.0000 C   0  0  0  0  0  0  0  0  0  0  0  0
   -1.6066    3.2904    0.0000 C   0  0  0  0  0  0  0  0  0  0  0  0
    4.1387   -0.0385    0.0000 C   0  0  0  0  0  0  0  0  0  0  0  0
   -0.4113    5.4883    0.0000 C   0  0  0  0  0  0  0  0  0  0  0  0
   -1.8894    4.9228    0.0000 C   0  0  0  0  0  0  0  0  0  0  0  0
    5.0128    1.1825    0.0000 C   0  0  0  0  0  0  0  0  0  0  0  0
    4.8457   -1.2339    0.0000 C   0  0  0  0  0  0  0  0  0  0  0  0
    6.2852    0.6298    0.0000 C   0  0  0  0  0  0  0  0  0  0  0  0
    4.5629    2.7891    0.0000 C   0  0  0  0  0  0  0  0  0  0  0  0
    6.2210   -0.7840    0.0000 C   0  0  0  0  0  0  0  0  0  0  0  0
    7.4806    1.4524    0.0000 C   0  0  0  0  0  0  0  0  0  0  0  0
    2.9948    3.4061    0.0000 C   0  0  0  0  0  0  0  0  0  0  0  0
    8.6760    0.7454    0.0000 C   0  0  0  0  0  0  0  0  0  0  0  0
    2.5449    5.0128    0.0000 C   0  0  0  0  0  0  0  0  0  0  0  0
    9.8713    1.5681    0.0000 O   0  0  0  0  0  0  0  0  0  0  0  0
    8.5603   -0.6683    0.0000 C   0  0  0  0  0  0  0  0  0  0  0  0
    0.9768    5.6297    0.0000 C   0  0  0  0  0  0  0  0  0  0  0  0
   11.0667    0.8611    0.0000 C   0  0  0  0  0  0  0  0  0  0  0  0
    0.5269    7.2364    0.0000 C   0  0  0  0  0  0  0  0  0  0  0  0
   12.2620    1.6837    0.0000 C   0  0  0  0  0  0  0  0  0  0  0  0
   13.4574    0.9768    0.0000 C   0  0  0  0  0  0  0  0  0  0  0  0
   14.6528    1.7994    0.0000 C   0  0  0  0  0  0  0  0  0  0  0  0
   13.3417   -0.4370    0.0000 C   0  0  0  0  0  0  0  0  0  0  0  0
   15.8481    1.0925    0.0000 C   0  0  0  0  0  0  0  0  0  0  0  0
   17.0435    1.9151    0.0000 C   0  0  0  0  0  0  0  0  0  0  0  0
   18.2388    1.2082    0.0000 C   0  0  0  0  0  0  0  0  0  0  0  0
   19.4342    2.0308    0.0000 C   0  0  0  0  0  0  0  0  0  0  0  0
   18.1232   -0.2056    0.0000 C   0  0  0  0  0  0  0  0  0  0  0  0
  1  2  2  0
  2  3  1  0
  2  4  1  0
  3  5  1  0
  4  6  1  0
  4  7  1  0
  5  8  2  0
  6  9  1  0
  7 10  1  0
  8 11  1  0
  8 12  1  0
 11 13  1  0
 11 14  1  0
 12 15  1  0
 13 16  1  0
 14 17  1  0
 16 18  1  0
 17 19  1  0
 18 20  1  0
 18 21  2  0
 19 22  1  0
 20 23  1  0
 22 24  1  0
 23 25  1  0
 25 26  2  0
 26 27  1  0
 26 28  1  0
 27 29  1  0
 29 30  1  0
 30 31  2  0
 31 32  1  0
 31 33  1  0
  9 10  1  0
 13 15  1  0
M  END
>  <Structure No>
356

>  <Molecule Name>
Compound_365

>  <PubChem CID>
Not found

>  <SMILES>
CCCCCC(C(CC(OC/C=C(\C)/CCC=C(C)C)=C)CC1)/C\1=N\OC(C1CCCC1)=O

>  <InChIKey>
UBWPBMNFVAJXCV-PUAUDHHESA-N

>  <Molecular Formula>
C29H47NO3

>  <Target Organism>
Acyrthosiphon pisum

>  <Reference DOI>
10.1021/acs.jafc.2c04126

>  <Activity Label>
1

>  <Repellency>
Active

>  <IUPAC>


>  <Common name>
Compound_365

$$$$
Compound 357
     RDKit          2D

 33 33  0  0  0  0  0  0  0  0999 V2000
    0.0000    0.0000    0.0000 O   0  0  0  0  0  0  0  0  0  0  0  0
   -0.1116    1.5749    0.0000 C   0  0  0  0  0  0  0  0  0  0  0  0
   -1.4757    2.3686    0.0000 O   0  0  0  0  0  0  0  0  0  0  0  0
    1.0293    2.3686    0.0000 C   0  0  0  0  0  0  0  0  0  0  0  0
   -1.5873    3.9436    0.0000 N   0  0  0  0  0  0  0  0  0  0  0  0
    2.1702    1.6989    0.0000 C   0  0  0  0  0  0  0  0  0  0  0  0
   -2.9515    4.7496    0.0000 C   0  0  0  0  0  0  0  0  0  0  0  0
    3.3111    2.4926    0.0000 C   0  0  0  0  0  0  0  0  0  0  0  0
   -4.3900    4.2164    0.0000 C   0  0  0  0  0  0  0  0  0  0  0  0
   -3.2243    6.3122    0.0000 C   0  0  0  0  0  0  0  0  0  0  0  0
    4.4520    1.8229    0.0000 C   0  0  0  0  0  0  0  0  0  0  0  0
   -5.4441    5.3821    0.0000 C   0  0  0  0  0  0  0  0  0  0  0  0
   -4.8240    2.9019    0.0000 C   0  0  0  0  0  0  0  0  0  0  0  0
   -4.7620    6.7462    0.0000 C   0  0  0  0  0  0  0  0  0  0  0  0
    5.5929    2.6166    0.0000 C   0  0  0  0  0  0  0  0  0  0  0  0
   -7.0067    5.3325    0.0000 C   0  0  0  0  0  0  0  0  0  0  0  0
   -3.8816    2.0710    0.0000 C   0  0  0  0  0  0  0  0  0  0  0  0
   -7.9368    6.6098    0.0000 C   0  0  0  0  0  0  0  0  0  0  0  0
   -4.3156    0.7564    0.0000 C   0  0  0  0  0  0  0  0  0  0  0  0
   -9.4993    6.5602    0.0000 O   0  0  0  0  0  0  0  0  0  0  0  0
   -7.4035    8.0484    0.0000 C   0  0  0  0  0  0  0  0  0  0  0  0
   -3.3731   -0.0744    0.0000 C   0  0  0  0  0  0  0  0  0  0  0  0
  -10.4294    7.8376    0.0000 C   0  0  0  0  0  0  0  0  0  0  0  0
   -3.8071   -1.3889    0.0000 C   0  0  0  0  0  0  0  0  0  0  0  0
  -11.9920    7.7880    0.0000 C   0  0  0  0  0  0  0  0  0  0  0  0
  -12.9221    9.0653    0.0000 C   0  0  0  0  0  0  0  0  0  0  0  0
  -14.4846    9.0157    0.0000 C   0  0  0  0  0  0  0  0  0  0  0  0
  -12.3888   10.5038    0.0000 C   0  0  0  0  0  0  0  0  0  0  0  0
  -15.4147   10.2930    0.0000 C   0  0  0  0  0  0  0  0  0  0  0  0
  -16.9773   10.2434    0.0000 C   0  0  0  0  0  0  0  0  0  0  0  0
  -17.9074   11.5207    0.0000 C   0  0  0  0  0  0  0  0  0  0  0  0
  -19.4700   11.4711    0.0000 C   0  0  0  0  0  0  0  0  0  0  0  0
  -17.3741   12.9593    0.0000 C   0  0  0  0  0  0  0  0  0  0  0  0
  1  2  2  0
  2  3  1  0
  2  4  1  0
  3  5  1  0
  4  6  1  0
  5  7  2  0
  6  8  1  0
  7  9  1  0
  7 10  1  0
  8 11  1  0
  9 12  1  0
  9 13  1  0
 10 14  1  0
 11 15  1  0
 12 16  1  0
 13 17  1  0
 16 18  1  0
 17 19  1  0
 18 20  1  0
 18 21  2  0
 19 22  1  0
 20 23  1  0
 22 24  1  0
 23 25  1  0
 25 26  2  0
 26 27  1  0
 26 28  1  0
 27 29  1  0
 29 30  1  0
 30 31  2  0
 31 32  1  0
 31 33  1  0
 12 14  1  0
M  END
>  <Structure No>
357

>  <Molecule Name>
Compound_354

>  <PubChem CID>
Not found

>  <SMILES>
CCCCCC(C(CC(OC/C=C(\C)/CCC=C(C)C)=C)CC1)/C\1=N\OC(CCCCC)=O

>  <InChIKey>
KCHVIKPYYFBRAV-OQVVGELLSA-N

>  <Molecular Formula>
C29H49NO3

>  <Target Organism>
Acyrthosiphon pisum

>  <Reference DOI>
10.1021/acs.jafc.2c04126

>  <Activity Label>
1

>  <Repellency>
Active

>  <IUPAC>


>  <Common name>
Compound_354

$$$$
Compound 358
     RDKit          2D

 33 33  0  0  0  0  0  0  0  0999 V2000
    0.0000    0.0000    0.0000 O   0  0  0  0  0  0  0  0  0  0  0  0
    0.7876    1.3428    0.0000 C   0  0  0  0  0  0  0  0  0  0  0  0
    2.1950    1.2911    0.0000 O   0  0  0  0  0  0  0  0  0  0  0  0
    0.0000    2.8535    0.0000 C   0  0  0  0  0  0  0  0  0  0  0  0
    2.7502    0.0129    0.0000 N   0  0  0  0  0  0  0  0  0  0  0  0
   -0.7876    4.3642    0.0000 C   0  0  0  0  0  0  0  0  0  0  0  0
    1.2782    3.6411    0.0000 C   0  0  0  0  0  0  0  0  0  0  0  0
   -1.5106    2.2983    0.0000 C   0  0  0  0  0  0  0  0  0  0  0  0
    4.1576   -0.0387    0.0000 C   0  0  0  0  0  0  0  0  0  0  0  0
   -2.4274    4.6482    0.0000 C   0  0  0  0  0  0  0  0  0  0  0  0
    5.0356    1.1878    0.0000 C   0  0  0  0  0  0  0  0  0  0  0  0
    4.8677   -1.2395    0.0000 C   0  0  0  0  0  0  0  0  0  0  0  0
    6.3139    0.6326    0.0000 C   0  0  0  0  0  0  0  0  0  0  0  0
    4.5837    2.8018    0.0000 C   0  0  0  0  0  0  0  0  0  0  0  0
    6.2493   -0.7876    0.0000 C   0  0  0  0  0  0  0  0  0  0  0  0
    7.5147    1.4590    0.0000 C   0  0  0  0  0  0  0  0  0  0  0  0
    3.0084    3.4216    0.0000 C   0  0  0  0  0  0  0  0  0  0  0  0
    8.7155    0.7618    0.0000 C   0  0  0  0  0  0  0  0  0  0  0  0
    2.5565    5.0356    0.0000 C   0  0  0  0  0  0  0  0  0  0  0  0
    9.9163    1.5881    0.0000 O   0  0  0  0  0  0  0  0  0  0  0  0
    8.5993   -0.6585    0.0000 C   0  0  0  0  0  0  0  0  0  0  0  0
    0.9813    5.6554    0.0000 C   0  0  0  0  0  0  0  0  0  0  0  0
   11.1171    0.8909    0.0000 C   0  0  0  0  0  0  0  0  0  0  0  0
    0.5293    7.2694    0.0000 C   0  0  0  0  0  0  0  0  0  0  0  0
   12.3179    1.7172    0.0000 C   0  0  0  0  0  0  0  0  0  0  0  0
   13.5187    1.0200    0.0000 C   0  0  0  0  0  0  0  0  0  0  0  0
   14.7195    1.8464    0.0000 C   0  0  0  0  0  0  0  0  0  0  0  0
   13.4025   -0.4002    0.0000 C   0  0  0  0  0  0  0  0  0  0  0  0
   15.9203    1.1491    0.0000 C   0  0  0  0  0  0  0  0  0  0  0  0
   17.1211    1.9755    0.0000 C   0  0  0  0  0  0  0  0  0  0  0  0
   18.3219    1.2782    0.0000 C   0  0  0  0  0  0  0  0  0  0  0  0
   19.5227    2.1046    0.0000 C   0  0  0  0  0  0  0  0  0  0  0  0
   18.2057   -0.1420    0.0000 C   0  0  0  0  0  0  0  0  0  0  0  0
  1  2  2  0
  2  3  1  0
  2  4  1  0
  3  5  1  0
  4  6  1  0
  4  7  1  0
  4  8  1  0
  5  9  2  0
  6 10  1  0
  9 11  1  0
  9 12  1  0
 11 13  1  0
 11 14  1  0
 12 15  1  0
 13 16  1  0
 14 17  1  0
 16 18  1  0
 17 19  1  0
 18 20  1  0
 18 21  2  0
 19 22  1  0
 20 23  1  0
 22 24  1  0
 23 25  1  0
 25 26  2  0
 26 27  1  0
 26 28  1  0
 27 29  1  0
 29 30  1  0
 30 31  2  0
 31 32  1  0
 31 33  1  0
 13 15  1  0
M  END
>  <Structure No>
358

>  <Molecule Name>
Compound_345

>  <PubChem CID>
Not found

>  <SMILES>
CCCCCC(C(CC(OC/C=C(\C)/CCC=C(C)C)=C)CC1)/C\1=N\OC(C(C)(C)CC)=O

>  <InChIKey>
AQMRZNLWDKCLCM-DRMRTFAXSA-N

>  <Molecular Formula>
C29H49NO3

>  <Target Organism>
Acyrthosiphon pisum

>  <Reference DOI>
10.1021/acs.jafc.2c04126

>  <Activity Label>
1

>  <Repellency>
Active

>  <IUPAC>


>  <Common name>
Compound_345

$$$$
Compound 359
     RDKit          2D

 34 35  0  0  0  0  0  0  0  0999 V2000
    0.0000    0.0000    0.0000 O   0  0  0  0  0  0  0  0  0  0  0  0
    0.7812    1.3319    0.0000 C   0  0  0  0  0  0  0  0  0  0  0  0
    2.1771    1.2806    0.0000 O   0  0  0  0  0  0  0  0  0  0  0  0
    0.0000    2.8302    0.0000 C   0  0  0  0  0  0  0  0  0  0  0  0
    2.7278    0.0128    0.0000 N   0  0  0  0  0  0  0  0  0  0  0  0
    0.7940    4.1621    0.0000 C   0  0  0  0  0  0  0  0  0  0  0  0
   -1.6264    3.1120    0.0000 C   0  0  0  0  0  0  0  0  0  0  0  0
    4.1237   -0.0384    0.0000 C   0  0  0  0  0  0  0  0  0  0  0  0
    0.0128    5.6605    0.0000 C   0  0  0  0  0  0  0  0  0  0  0  0
   -2.4076    4.6104    0.0000 C   0  0  0  0  0  0  0  0  0  0  0  0
    4.9946    1.1782    0.0000 C   0  0  0  0  0  0  0  0  0  0  0  0
    4.8281   -1.2294    0.0000 C   0  0  0  0  0  0  0  0  0  0  0  0
   -1.6136    5.9423    0.0000 C   0  0  0  0  0  0  0  0  0  0  0  0
    6.2625    0.6275    0.0000 C   0  0  0  0  0  0  0  0  0  0  0  0
    4.5463    2.7790    0.0000 C   0  0  0  0  0  0  0  0  0  0  0  0
    6.1984   -0.7812    0.0000 C   0  0  0  0  0  0  0  0  0  0  0  0
    7.4535    1.4471    0.0000 C   0  0  0  0  0  0  0  0  0  0  0  0
    2.9839    3.3937    0.0000 C   0  0  0  0  0  0  0  0  0  0  0  0
    8.6445    0.7427    0.0000 C   0  0  0  0  0  0  0  0  0  0  0  0
    2.5357    4.9946    0.0000 C   0  0  0  0  0  0  0  0  0  0  0  0
    9.8355    1.5624    0.0000 O   0  0  0  0  0  0  0  0  0  0  0  0
    8.5292   -0.6659    0.0000 C   0  0  0  0  0  0  0  0  0  0  0  0
    0.9733    5.6093    0.0000 C   0  0  0  0  0  0  0  0  0  0  0  0
   11.0266    0.8580    0.0000 C   0  0  0  0  0  0  0  0  0  0  0  0
    0.5250    7.2102    0.0000 C   0  0  0  0  0  0  0  0  0  0  0  0
   12.2176    1.6776    0.0000 C   0  0  0  0  0  0  0  0  0  0  0  0
   13.4086    0.9733    0.0000 C   0  0  0  0  0  0  0  0  0  0  0  0
   14.5996    1.7929    0.0000 C   0  0  0  0  0  0  0  0  0  0  0  0
   13.2934   -0.4354    0.0000 C   0  0  0  0  0  0  0  0  0  0  0  0
   15.7907    1.0885    0.0000 C   0  0  0  0  0  0  0  0  0  0  0  0
   16.9817    1.9210    0.0000 C   0  0  0  0  0  0  0  0  0  0  0  0
   18.1727    1.2166    0.0000 C   0  0  0  0  0  0  0  0  0  0  0  0
   19.3638    2.0490    0.0000 C   0  0  0  0  0  0  0  0  0  0  0  0
   18.0575   -0.1921    0.0000 C   0  0  0  0  0  0  0  0  0  0  0  0
  1  2  2  0
  2  3  1  0
  2  4  1  0
  3  5  1  0
  4  6  2  0
  4  7  1  0
  5  8  2  0
  6  9  1  0
  7 10  2  0
  8 11  1  0
  8 12  1  0
  9 13  2  0
 11 14  1  0
 11 15  1  0
 12 16  1  0
 14 17  1  0
 15 18  1  0
 17 19  1  0
 18 20  1  0
 19 21  1  0
 19 22  2  0
 20 23  1  0
 21 24  1  0
 23 25  1  0
 24 26  1  0
 26 27  2  0
 27 28  1  0
 27 29  1  0
 28 30  1  0
 30 31  1  0
 31 32  2  0
 32 33  1  0
 32 34  1  0
 10 13  1  0
 14 16  1  0
M  END
>  <Structure No>
359

>  <Molecule Name>
Compound_347

>  <PubChem CID>
Not found

>  <SMILES>
CCCCCC(C(CC(OC/C=C(\C)/CCC=C(C)C)=C)CC1)/C\1=N\OC(c1ccccc1)=O

>  <InChIKey>
FGLKHBPMYXNBOC-UWKKQAPASA-N

>  <Molecular Formula>
C30H43NO3

>  <Target Organism>
Acyrthosiphon pisum

>  <Reference DOI>
10.1021/acs.jafc.2c04126

>  <Activity Label>
1

>  <Repellency>
Active

>  <IUPAC>


>  <Common name>
Compound_347

$$$$
Compound 360
     RDKit          2D

  9  9  0  0  0  0  0  0  0  0999 V2000
    0.0000    0.0000    0.0000 O   0  0  0  0  0  0  0  0  0  0  0  0
    1.2899   -0.7153    0.0000 C   0  0  0  0  0  0  0  0  0  0  0  0
   -1.3602   -0.7153    0.0000 C   0  0  0  0  0  0  0  0  0  0  0  0
    1.2547   -2.2045    0.0000 C   0  0  0  0  0  0  0  0  0  0  0  0
    2.5798    0.0820    0.0000 C   0  0  0  0  0  0  0  0  0  0  0  0
   -0.1055   -2.9081    0.0000 O   0  0  0  0  0  0  0  0  0  0  0  0
    2.5446   -2.9198    0.0000 C   0  0  0  0  0  0  0  0  0  0  0  0
    3.8697   -0.6332    0.0000 C   0  0  0  0  0  0  0  0  0  0  0  0
    3.8345   -2.1107    0.0000 C   0  0  0  0  0  0  0  0  0  0  0  0
  1  2  1  0
  1  3  1  0
  2  4  2  0
  2  5  1  0
  4  6  1  0
  4  7  1  0
  5  8  2  0
  7  9  2  0
  8  9  1  0
M  END
>  <Structure No>
360

>  <Molecule Name>
Guaiacol

>  <PubChem CID>
460

>  <SMILES>
COc(cccc1)c1O

>  <InChIKey>
LHGVFZTZFXWLCP-UHFFFAOYSA-N

>  <Molecular Formula>
C7H8O2

>  <Target Organism>
Aedes aegypti

>  <Reference DOI>
10.1515/chem-2018-0015

>  <Activity Label>
2

>  <Repellency>
Dual Active

>  <IUPAC>
2-methoxyphenol

>  <Common name>
Guaiacol

$$$$
Compound 361
     RDKit          2D

 14 14  0  0  0  0  0  0  0  0999 V2000
    0.0000    0.0000    0.0000 F   0  0  0  0  0  0  0  0  0  0  0  0
    0.0000   -1.4990    0.0000 C   0  0  0  0  0  0  0  0  0  0  0  0
    1.4990   -1.4990    0.0000 F   0  0  0  0  0  0  0  0  0  0  0  0
   -1.4990   -1.4990    0.0000 F   0  0  0  0  0  0  0  0  0  0  0  0
    0.0000   -2.9981    0.0000 C   0  0  0  0  0  0  0  0  0  0  0  0
    1.2984   -3.7536    0.0000 C   0  0  0  0  0  0  0  0  0  0  0  0
   -1.2984   -3.7536    0.0000 C   0  0  0  0  0  0  0  0  0  0  0  0
    1.2984   -5.2527    0.0000 C   0  0  0  0  0  0  0  0  0  0  0  0
   -1.2984   -5.2527    0.0000 C   0  0  0  0  0  0  0  0  0  0  0  0
    0.0000   -6.0081    0.0000 C   0  0  0  0  0  0  0  0  0  0  0  0
    0.0000   -7.5072    0.0000 N   0  0  0  0  0  0  0  0  0  0  0  0
   -1.2984   -8.2626    0.0000 C   0  0  0  0  0  0  0  0  0  0  0  0
   -2.5968   -7.5190    0.0000 O   0  0  0  0  0  0  0  0  0  0  0  0
   -1.2984   -9.7617    0.0000 C   0  0  0  0  0  0  0  0  0  0  0  0
  1  2  1  0
  2  3  1  0
  2  4  1  0
  2  5  1  0
  5  6  2  0
  5  7  1  0
  6  8  1  0
  7  9  2  0
  8 10  2  0
 10 11  1  0
 11 12  1  0
 12 13  2  0
 12 14  1  0
  9 10  1  0
M  END
>  <Structure No>
361

>  <Molecule Name>
N-[4-(trifluoromethyl)phenyl]acetamide

>  <PubChem CID>
67685

>  <SMILES>
CC(=O)NC1=CC=C(C=C1)C(F)(F)F

>  <InChIKey>
DFDHFECLWHHELH-UHFFFAOYSA-N

>  <Molecular Formula>
C9H8F3NO

>  <Target Organism>
Aedes aegypti

>  <Reference DOI>
10.1016/j.pestbp.2019.06.012

>  <Activity Label>
2

>  <Repellency>
Dual Active

>  <IUPAC>


>  <Common name>
N-[4-(trifluoromethyl)phenyl]acetamide

$$$$
Compound 362
     RDKit          2D

 15 15  0  0  0  0  0  0  0  0999 V2000
    0.0000    0.0000    0.0000 Cl  0  0  0  0  0  0  0  0  0  0  0  0
    0.0000    1.5013    0.0000 C   0  0  0  0  0  0  0  0  0  0  0  0
    1.3003    2.2460    0.0000 C   0  0  0  0  0  0  0  0  0  0  0  0
    2.6006    1.5013    0.0000 O   0  0  0  0  0  0  0  0  0  0  0  0
    1.3003    3.7473    0.0000 N   0  0  0  0  0  0  0  0  0  0  0  0
    2.6006    4.4920    0.0000 C   0  0  0  0  0  0  0  0  0  0  0  0
    2.6006    5.9933    0.0000 C   0  0  0  0  0  0  0  0  0  0  0  0
    3.9010    3.7473    0.0000 C   0  0  0  0  0  0  0  0  0  0  0  0
    3.9010    6.7381    0.0000 C   0  0  0  0  0  0  0  0  0  0  0  0
    5.2013    4.4920    0.0000 C   0  0  0  0  0  0  0  0  0  0  0  0
    5.2013    5.9933    0.0000 C   0  0  0  0  0  0  0  0  0  0  0  0
    3.9010    8.2394    0.0000 C   0  0  0  0  0  0  0  0  0  0  0  0
    3.9010    9.7407    0.0000 F   0  0  0  0  0  0  0  0  0  0  0  0
    5.4023    8.2394    0.0000 F   0  0  0  0  0  0  0  0  0  0  0  0
    2.3997    8.2394    0.0000 F   0  0  0  0  0  0  0  0  0  0  0  0
  1  2  1  0
  2  3  1  0
  3  4  2  0
  3  5  1  0
  5  6  1  0
  6  7  2  0
  6  8  1  0
  7  9  1  0
  8 10  2  0
  9 11  2  0
  9 12  1  0
 12 13  1  0
 12 14  1  0
 12 15  1  0
 10 11  1  0
M  END
>  <Structure No>
362

>  <Molecule Name>
2-Chloro-N-(3-(trifluoromethyl)phenyl)acetamide

>  <PubChem CID>
736744

>  <SMILES>
C1=CC(=CC(=C1)NC(=O)CCl)C(F)(F)F

>  <InChIKey>
MOEJRZLPQODXGM-UHFFFAOYSA-N

>  <Molecular Formula>
C9H7ClF3NO

>  <Target Organism>
Aedes aegypti

>  <Reference DOI>
10.1016/j.pestbp.2018.08.006

>  <Activity Label>
2

>  <Repellency>
Dual Active

>  <IUPAC>


>  <Common name>
2-chloro-N-(3-(trifluoromethyl)phenyl)acetamide

$$$$
Compound 363
     RDKit          2D

 15 15  0  0  0  0  0  0  0  0999 V2000
    0.0000    0.0000    0.0000 F   0  0  0  0  0  0  0  0  0  0  0  0
    1.4991    0.0000    0.0000 C   0  0  0  0  0  0  0  0  0  0  0  0
    1.4991    1.4991    0.0000 F   0  0  0  0  0  0  0  0  0  0  0  0
    2.9982    0.0000    0.0000 F   0  0  0  0  0  0  0  0  0  0  0  0
    1.4991   -1.4991    0.0000 C   0  0  0  0  0  0  0  0  0  0  0  0
    0.2006   -2.2545    0.0000 C   0  0  0  0  0  0  0  0  0  0  0  0
    2.7975   -2.2545    0.0000 C   0  0  0  0  0  0  0  0  0  0  0  0
   -1.0977   -1.5109    0.0000 N   0  0  0  0  0  0  0  0  0  0  0  0
    0.2006   -3.7537    0.0000 C   0  0  0  0  0  0  0  0  0  0  0  0
    2.7975   -3.7537    0.0000 C   0  0  0  0  0  0  0  0  0  0  0  0
   -2.3962   -2.2663    0.0000 C   0  0  0  0  0  0  0  0  0  0  0  0
    1.4991   -4.5091    0.0000 C   0  0  0  0  0  0  0  0  0  0  0  0
   -2.3962   -3.7655    0.0000 O   0  0  0  0  0  0  0  0  0  0  0  0
   -3.6947   -1.5227    0.0000 C   0  0  0  0  0  0  0  0  0  0  0  0
   -4.9931   -2.2782    0.0000 C   0  0  0  0  0  0  0  0  0  0  0  0
  1  2  1  0
  2  3  1  0
  2  4  1  0
  2  5  1  0
  5  6  2  0
  5  7  1  0
  6  8  1  0
  6  9  1  0
  7 10  2  0
  8 11  1  0
  9 12  2  0
 11 13  2  0
 11 14  1  0
 14 15  1  0
 10 12  1  0
M  END
>  <Structure No>
363

>  <Molecule Name>
N-[2-(trifluoromethyl)phenyl]propanamide

>  <PubChem CID>
3507819

>  <SMILES>
CCC(=O)NC1=CC=CC=C1C(F)(F)F

>  <InChIKey>
JZRAJSHDIIOPEY-UHFFFAOYSA-N

>  <Molecular Formula>
C10H10F3NO

>  <Target Organism>
Aedes aegypti

>  <Reference DOI>
10.1016/j.pestbp.2019.06.012

>  <Activity Label>
2

>  <Repellency>
Dual Active

>  <IUPAC>


>  <Common name>
N-(2-(trifluoromethyl)phenyl)propionamide

$$$$
Compound 364
     RDKit          2D

 16 16  0  0  0  0  0  0  0  0999 V2000
    0.0000    0.0000    0.0000 F   0  0  0  0  0  0  0  0  0  0  0  0
    1.5015    0.0000    0.0000 C   0  0  0  0  0  0  0  0  0  0  0  0
    1.5015    1.5015    0.0000 F   0  0  0  0  0  0  0  0  0  0  0  0
    3.0031    0.0000    0.0000 F   0  0  0  0  0  0  0  0  0  0  0  0
    1.5015   -1.5015    0.0000 C   0  0  0  0  0  0  0  0  0  0  0  0
    0.2009   -2.2464    0.0000 C   0  0  0  0  0  0  0  0  0  0  0  0
    2.8021   -2.2464    0.0000 C   0  0  0  0  0  0  0  0  0  0  0  0
   -1.0995   -1.5015    0.0000 N   0  0  0  0  0  0  0  0  0  0  0  0
    0.2009   -3.7480    0.0000 C   0  0  0  0  0  0  0  0  0  0  0  0
    2.8021   -3.7480    0.0000 C   0  0  0  0  0  0  0  0  0  0  0  0
   -2.4001   -2.2464    0.0000 C   0  0  0  0  0  0  0  0  0  0  0  0
    1.5015   -4.4928    0.0000 C   0  0  0  0  0  0  0  0  0  0  0  0
   -2.4001   -3.7480    0.0000 O   0  0  0  0  0  0  0  0  0  0  0  0
   -3.7007   -1.5015    0.0000 C   0  0  0  0  0  0  0  0  0  0  0  0
   -5.0013   -2.2464    0.0000 C   0  0  0  0  0  0  0  0  0  0  0  0
   -6.3018   -1.5015    0.0000 C   0  0  0  0  0  0  0  0  0  0  0  0
  1  2  1  0
  2  3  1  0
  2  4  1  0
  2  5  1  0
  5  6  2  0
  5  7  1  0
  6  8  1  0
  6  9  1  0
  7 10  2  0
  8 11  1  0
  9 12  2  0
 11 13  2  0
 11 14  1  0
 14 15  1  0
 15 16  1  0
 10 12  1  0
M  END
>  <Structure No>
364

>  <Molecule Name>
N-[2-(trifluoromethyl)phenyl]butanamide

>  <PubChem CID>
3557464

>  <SMILES>
CCCC(=O)NC1=CC=CC=C1C(F)(F)F

>  <InChIKey>
VEYDOHILWNMSCP-UHFFFAOYSA-N

>  <Molecular Formula>
C11H12F3NO

>  <Target Organism>
Aedes aegypti

>  <Reference DOI>
10.1016/j.pestbp.2019.06.012

>  <Activity Label>
2

>  <Repellency>
Dual Active

>  <IUPAC>


>  <Common name>
N-(2-(trifluoromethyl)phenyl)butyramide

$$$$
Compound 365
     RDKit          2D

 17 17  0  0  0  0  0  0  0  0999 V2000
    0.0000    0.0000    0.0000 F   0  0  0  0  0  0  0  0  0  0  0  0
    0.7556    1.2988    0.0000 C   0  0  0  0  0  0  0  0  0  0  0  0
   -0.5431    2.0427    0.0000 F   0  0  0  0  0  0  0  0  0  0  0  0
    1.5113    2.5976    0.0000 F   0  0  0  0  0  0  0  0  0  0  0  0
    2.0545    0.5431    0.0000 C   0  0  0  0  0  0  0  0  0  0  0  0
    3.3533    1.2870    0.0000 C   0  0  0  0  0  0  0  0  0  0  0  0
    2.0545   -0.9564    0.0000 C   0  0  0  0  0  0  0  0  0  0  0  0
    3.3533    2.7865    0.0000 N   0  0  0  0  0  0  0  0  0  0  0  0
    4.6521    0.5313    0.0000 C   0  0  0  0  0  0  0  0  0  0  0  0
    3.3533   -1.7120    0.0000 C   0  0  0  0  0  0  0  0  0  0  0  0
    4.6521    3.5304    0.0000 C   0  0  0  0  0  0  0  0  0  0  0  0
    4.6521   -0.9682    0.0000 C   0  0  0  0  0  0  0  0  0  0  0  0
    5.9510    2.7747    0.0000 O   0  0  0  0  0  0  0  0  0  0  0  0
    4.6521    5.0300    0.0000 C   0  0  0  0  0  0  0  0  0  0  0  0
    4.6521    6.5295    0.0000 F   0  0  0  0  0  0  0  0  0  0  0  0
    6.1517    5.0300    0.0000 F   0  0  0  0  0  0  0  0  0  0  0  0
    3.1526    5.0300    0.0000 F   0  0  0  0  0  0  0  0  0  0  0  0
  1  2  1  0
  2  3  1  0
  2  4  1  0
  2  5  1  0
  5  6  2  0
  5  7  1  0
  6  8  1  0
  6  9  1  0
  7 10  2  0
  8 11  1  0
  9 12  2  0
 11 13  2  0
 11 14  1  0
 14 15  1  0
 14 16  1  0
 14 17  1  0
 10 12  1  0
M  END
>  <Structure No>
365

>  <Molecule Name>
Acetanilide

>  <PubChem CID>
200624

>  <SMILES>
C1=CC=C(C(=C1)C(F)(F)F)NC(=O)C(F)(F)F

>  <InChIKey>
LSKSGZMPZLOFPN-UHFFFAOYSA-N

>  <Molecular Formula>
C9H5NOF6

>  <Target Organism>
Aedes aegypti

>  <Reference DOI>
10.1016/j.pestbp.2013.06.006

>  <Activity Label>
2

>  <Repellency>
Dual Active

>  <IUPAC>


>  <Common name>
Acetanilide

$$$$
Compound 366
     RDKit          2D

 17 17  0  0  0  0  0  0  0  0999 V2000
    0.0000    0.0000    0.0000 F   0  0  0  0  0  0  0  0  0  0  0  0
    1.4992    0.0000    0.0000 C   0  0  0  0  0  0  0  0  0  0  0  0
    1.4992    1.4992    0.0000 F   0  0  0  0  0  0  0  0  0  0  0  0
    2.9984    0.0000    0.0000 F   0  0  0  0  0  0  0  0  0  0  0  0
    1.4992   -1.4992    0.0000 C   0  0  0  0  0  0  0  0  0  0  0  0
    0.2006   -2.2547    0.0000 C   0  0  0  0  0  0  0  0  0  0  0  0
    2.7977   -2.2547    0.0000 C   0  0  0  0  0  0  0  0  0  0  0  0
   -1.0978   -1.5110    0.0000 N   0  0  0  0  0  0  0  0  0  0  0  0
    0.2006   -3.7539    0.0000 C   0  0  0  0  0  0  0  0  0  0  0  0
    2.7977   -3.7539    0.0000 C   0  0  0  0  0  0  0  0  0  0  0  0
   -2.3963   -2.2665    0.0000 C   0  0  0  0  0  0  0  0  0  0  0  0
    1.4992   -4.5094    0.0000 C   0  0  0  0  0  0  0  0  0  0  0  0
   -2.3963   -3.7657    0.0000 O   0  0  0  0  0  0  0  0  0  0  0  0
   -3.6949   -1.5228    0.0000 C   0  0  0  0  0  0  0  0  0  0  0  0
   -4.9934   -2.2783    0.0000 C   0  0  0  0  0  0  0  0  0  0  0  0
   -6.2919   -1.5346    0.0000 C   0  0  0  0  0  0  0  0  0  0  0  0
   -7.5904   -2.2901    0.0000 C   0  0  0  0  0  0  0  0  0  0  0  0
  1  2  1  0
  2  3  1  0
  2  4  1  0
  2  5  1  0
  5  6  2  0
  5  7  1  0
  6  8  1  0
  6  9  1  0
  7 10  2  0
  8 11  1  0
  9 12  2  0
 11 13  2  0
 11 14  1  0
 14 15  1  0
 15 16  1  0
 16 17  1  0
 10 12  1  0
M  END
>  <Structure No>
366

>  <Molecule Name>
N-[2-(trifluoromethyl)phenyl]pentanamide

>  <PubChem CID>
2274751

>  <SMILES>
CCCCC(=O)NC1=CC=CC=C1C(F)(F)F

>  <InChIKey>
JIHXNIPQSMUYQP-UHFFFAOYSA-N

>  <Molecular Formula>
C12H14F3NO

>  <Target Organism>
Aedes aegypti

>  <Reference DOI>
10.1016/j.pestbp.2019.06.012

>  <Activity Label>
2

>  <Repellency>
Dual Active

>  <IUPAC>


>  <Common name>
N-(2-(trifluoromethyl)phenyl)pentanamide

$$$$
Compound 367
     RDKit          2D

 18 18  0  0  0  0  0  0  0  0999 V2000
    0.0000    0.0000    0.0000 F   0  0  0  0  0  0  0  0  0  0  0  0
   -1.5012    0.0000    0.0000 C   0  0  0  0  0  0  0  0  0  0  0  0
   -1.5012    1.5012    0.0000 F   0  0  0  0  0  0  0  0  0  0  0  0
   -3.0024    0.0000    0.0000 F   0  0  0  0  0  0  0  0  0  0  0  0
   -1.5012   -1.5012    0.0000 C   0  0  0  0  0  0  0  0  0  0  0  0
   -0.2009   -2.2459    0.0000 C   0  0  0  0  0  0  0  0  0  0  0  0
   -2.8015   -2.2459    0.0000 C   0  0  0  0  0  0  0  0  0  0  0  0
   -0.2009   -3.7471    0.0000 C   0  0  0  0  0  0  0  0  0  0  0  0
   -2.8015   -3.7471    0.0000 C   0  0  0  0  0  0  0  0  0  0  0  0
   -1.5012   -4.4919    0.0000 C   0  0  0  0  0  0  0  0  0  0  0  0
   -1.5012   -5.9931    0.0000 N   0  0  0  0  0  0  0  0  0  0  0  0
   -2.8015   -6.7378    0.0000 C   0  0  0  0  0  0  0  0  0  0  0  0
   -4.1018   -5.9931    0.0000 O   0  0  0  0  0  0  0  0  0  0  0  0
   -2.8015   -8.2391    0.0000 C   0  0  0  0  0  0  0  0  0  0  0  0
   -4.1018   -8.9838    0.0000 C   0  0  0  0  0  0  0  0  0  0  0  0
   -4.1018  -10.4850    0.0000 C   0  0  0  0  0  0  0  0  0  0  0  0
   -5.4021  -11.2297    0.0000 C   0  0  0  0  0  0  0  0  0  0  0  0
   -5.4021  -12.7310    0.0000 C   0  0  0  0  0  0  0  0  0  0  0  0
  1  2  1  0
  2  3  1  0
  2  4  1  0
  2  5  1  0
  5  6  2  0
  5  7  1  0
  6  8  1  0
  7  9  2  0
  8 10  2  0
 10 11  1  0
 11 12  1  0
 12 13  2  0
 12 14  1  0
 14 15  1  0
 15 16  1  0
 16 17  1  0
 17 18  1  0
  9 10  1  0
M  END
>  <Structure No>
367

>  <Molecule Name>
N-[4-(trifluoromethyl)phenyl]hexanamide

>  <PubChem CID>
17071364

>  <SMILES>
CCCCCC(=O)NC1=CC=C(C=C1)C(F)(F)F

>  <InChIKey>
IFWCMBOIKLPVFK-UHFFFAOYSA-N

>  <Molecular Formula>
C13H16NOF3

>  <Target Organism>
Aedes aegypti

>  <Reference DOI>
10.1016/j.pestbp.2013.06.006

>  <Activity Label>
2

>  <Repellency>
Dual Active

>  <IUPAC>


>  <Common name>
N-[4-(trifluoromethyl)phenyl]hexanamide

$$$$
Compound 368
     RDKit          2D

 18 18  0  0  0  0  0  0  0  0999 V2000
    0.0000    0.0000    0.0000 F   0  0  0  0  0  0  0  0  0  0  0  0
    1.4984    0.0000    0.0000 C   0  0  0  0  0  0  0  0  0  0  0  0
    1.4984    1.4984    0.0000 F   0  0  0  0  0  0  0  0  0  0  0  0
    2.9968    0.0000    0.0000 F   0  0  0  0  0  0  0  0  0  0  0  0
    1.4984   -1.4984    0.0000 C   0  0  0  0  0  0  0  0  0  0  0  0
    0.2005   -2.2535    0.0000 C   0  0  0  0  0  0  0  0  0  0  0  0
    2.7963   -2.2535    0.0000 C   0  0  0  0  0  0  0  0  0  0  0  0
    0.2005   -3.7520    0.0000 C   0  0  0  0  0  0  0  0  0  0  0  0
    2.7963   -3.7520    0.0000 C   0  0  0  0  0  0  0  0  0  0  0  0
   -1.0972   -4.5071    0.0000 N   0  0  0  0  0  0  0  0  0  0  0  0
    1.4984   -4.5071    0.0000 C   0  0  0  0  0  0  0  0  0  0  0  0
   -1.0972   -6.0055    0.0000 C   0  0  0  0  0  0  0  0  0  0  0  0
    0.2005   -6.7607    0.0000 O   0  0  0  0  0  0  0  0  0  0  0  0
   -2.3951   -6.7607    0.0000 C   0  0  0  0  0  0  0  0  0  0  0  0
   -2.3951   -8.2591    0.0000 C   0  0  0  0  0  0  0  0  0  0  0  0
   -3.6930   -9.0142    0.0000 C   0  0  0  0  0  0  0  0  0  0  0  0
   -3.6930  -10.5127    0.0000 C   0  0  0  0  0  0  0  0  0  0  0  0
   -4.9908  -11.2678    0.0000 C   0  0  0  0  0  0  0  0  0  0  0  0
  1  2  1  0
  2  3  1  0
  2  4  1  0
  2  5  1  0
  5  6  2  0
  5  7  1  0
  6  8  1  0
  7  9  2  0
  8 10  1  0
  8 11  2  0
 10 12  1  0
 12 13  2  0
 12 14  1  0
 14 15  1  0
 15 16  1  0
 16 17  1  0
 17 18  1  0
  9 11  1  0
M  END
>  <Structure No>
368

>  <Molecule Name>
N-(3-Trifluoromethylphenyl)hexanamide

>  <PubChem CID>
4609508

>  <SMILES>
CCCCCC(=O)NC1=CC=CC(=C1)C(F)(F)F

>  <InChIKey>
XYPHSRRLSYMAIV-UHFFFAOYSA-N

>  <Molecular Formula>
C13H16NOF3

>  <Target Organism>
Aedes aegypti

>  <Reference DOI>
10.1016/j.pestbp.2013.06.006

>  <Activity Label>
2

>  <Repellency>
Dual Active

>  <IUPAC>


>  <Common name>
N-(3-Trifluoromethylphenyl)hexanamide

$$$$
Compound 369
     RDKit          2D

 18 18  0  0  0  0  0  0  0  0999 V2000
    0.0000    0.0000    0.0000 F   0  0  0  0  0  0  0  0  0  0  0  0
    1.4994    0.0000    0.0000 C   0  0  0  0  0  0  0  0  0  0  0  0
    1.4994    1.4994    0.0000 F   0  0  0  0  0  0  0  0  0  0  0  0
    2.9988    0.0000    0.0000 F   0  0  0  0  0  0  0  0  0  0  0  0
    1.4994   -1.4994    0.0000 C   0  0  0  0  0  0  0  0  0  0  0  0
    0.2007   -2.2550    0.0000 C   0  0  0  0  0  0  0  0  0  0  0  0
    2.7981   -2.2550    0.0000 C   0  0  0  0  0  0  0  0  0  0  0  0
   -1.0979   -1.5112    0.0000 N   0  0  0  0  0  0  0  0  0  0  0  0
    0.2007   -3.7544    0.0000 C   0  0  0  0  0  0  0  0  0  0  0  0
    2.7981   -3.7544    0.0000 C   0  0  0  0  0  0  0  0  0  0  0  0
   -2.3966   -2.2668    0.0000 C   0  0  0  0  0  0  0  0  0  0  0  0
    1.4994   -4.5100    0.0000 C   0  0  0  0  0  0  0  0  0  0  0  0
   -2.3966   -3.7662    0.0000 O   0  0  0  0  0  0  0  0  0  0  0  0
   -3.6953   -1.5230    0.0000 C   0  0  0  0  0  0  0  0  0  0  0  0
   -4.9940   -2.2786    0.0000 C   0  0  0  0  0  0  0  0  0  0  0  0
   -6.2928   -1.5348    0.0000 C   0  0  0  0  0  0  0  0  0  0  0  0
   -7.5915   -2.2904    0.0000 C   0  0  0  0  0  0  0  0  0  0  0  0
   -8.8902   -1.5466    0.0000 C   0  0  0  0  0  0  0  0  0  0  0  0
  1  2  1  0
  2  3  1  0
  2  4  1  0
  2  5  1  0
  5  6  2  0
  5  7  1  0
  6  8  1  0
  6  9  1  0
  7 10  2  0
  8 11  1  0
  9 12  2  0
 11 13  2  0
 11 14  1  0
 14 15  1  0
 15 16  1  0
 16 17  1  0
 17 18  2  0
 10 12  1  0
M  END
>  <Structure No>
369

>  <Molecule Name>
N-[2-(trifluoromethyl)phenyl]hex-5-enamide

>  <PubChem CID>
169302940

>  <SMILES>
C=CCCCC(=O)NC1=CC=CC=C1C(F)(F)F

>  <InChIKey>
XTJZWLNUGGPNKI-UHFFFAOYSA-N

>  <Molecular Formula>
C13H14F3NO

>  <Target Organism>
Aedes aegypti

>  <Reference DOI>
10.1016/j.pestbp.2019.06.012

>  <Activity Label>
2

>  <Repellency>
Dual Active

>  <IUPAC>


>  <Common name>
N-(2-(trifluoromethyl)phenyl)hex-5-enamide

$$$$
Compound 370
     RDKit          2D

 19 19  0  0  0  0  0  0  0  0999 V2000
    0.0000    0.0000    0.0000 Cl  0  0  0  0  0  0  0  0  0  0  0  0
   -1.3002   -0.7446    0.0000 C   0  0  0  0  0  0  0  0  0  0  0  0
   -2.6004    0.0000    0.0000 C   0  0  0  0  0  0  0  0  0  0  0  0
   -1.3002   -2.2458    0.0000 C   0  0  0  0  0  0  0  0  0  0  0  0
   -2.6004    1.5011    0.0000 N   0  0  0  0  0  0  0  0  0  0  0  0
   -3.9006   -0.7446    0.0000 C   0  0  0  0  0  0  0  0  0  0  0  0
   -2.6004   -2.9905    0.0000 C   0  0  0  0  0  0  0  0  0  0  0  0
   -1.3002    2.2458    0.0000 C   0  0  0  0  0  0  0  0  0  0  0  0
   -5.2009    0.0000    0.0000 Cl  0  0  0  0  0  0  0  0  0  0  0  0
   -3.9006   -2.2458    0.0000 C   0  0  0  0  0  0  0  0  0  0  0  0
   -2.6004   -4.4917    0.0000 C   0  0  0  0  0  0  0  0  0  0  0  0
    0.0000    1.5011    0.0000 O   0  0  0  0  0  0  0  0  0  0  0  0
   -1.3002    3.7470    0.0000 C   0  0  0  0  0  0  0  0  0  0  0  0
   -2.6004   -5.9928    0.0000 F   0  0  0  0  0  0  0  0  0  0  0  0
   -4.1016   -4.4917    0.0000 F   0  0  0  0  0  0  0  0  0  0  0  0
   -1.0992   -4.4917    0.0000 F   0  0  0  0  0  0  0  0  0  0  0  0
   -1.3002    5.2482    0.0000 F   0  0  0  0  0  0  0  0  0  0  0  0
    0.2009    3.7470    0.0000 F   0  0  0  0  0  0  0  0  0  0  0  0
   -2.8014    3.7470    0.0000 F   0  0  0  0  0  0  0  0  0  0  0  0
  1  2  1  0
  2  3  2  0
  2  4  1  0
  3  5  1  0
  3  6  1  0
  4  7  2  0
  5  8  1  0
  6  9  1  0
  6 10  2  0
  7 11  1  0
  8 12  2  0
  8 13  1  0
 11 14  1  0
 11 15  1  0
 11 16  1  0
 13 17  1  0
 13 18  1  0
 13 19  1  0
  7 10  1  0
M  END
>  <Structure No>
370

>  <Molecule Name>
N-[2,6-dichloro-4-(trifluoromethyl)phenyl]-2,2,2-trifluoroacetamide

>  <PubChem CID>
85707779

>  <SMILES>
C1=C(C=C(C(=C1Cl)NC(=O)C(F)(F)F)Cl)C(F)(F)F

>  <InChIKey>
ZXPJZBGRCNGKTP-UHFFFAOYSA-N

>  <Molecular Formula>
C9H3NOCl2F6

>  <Target Organism>
Aedes aegypti

>  <Reference DOI>
10.1016/j.pestbp.2013.06.006

>  <Activity Label>
2

>  <Repellency>
Dual Active

>  <IUPAC>


>  <Common name>
N-[2,6-dichloro-4-(trifluoromethyl)phenyl]-2,2,2-trifluoroacetamide

$$$$
Compound 371
     RDKit          2D

 20 20  0  0  0  0  0  0  0  0999 V2000
    0.0000    0.0000    0.0000 Br  0  0  0  0  0  0  0  0  0  0  0  0
   -0.3135    1.6592    0.0000 C   0  0  0  0  0  0  0  0  0  0  0  0
   -1.7507    2.4954    0.0000 C   0  0  0  0  0  0  0  0  0  0  0  0
    0.4964    2.4954    0.0000 C   0  0  0  0  0  0  0  0  0  0  0  0
   -2.0643    4.1547    0.0000 C   0  0  0  0  0  0  0  0  0  0  0  0
    0.1829    4.1547    0.0000 C   0  0  0  0  0  0  0  0  0  0  0  0
   -1.2542    4.9909    0.0000 C   0  0  0  0  0  0  0  0  0  0  0  0
   -1.5678    6.6502    0.0000 C   0  0  0  0  0  0  0  0  0  0  0  0
   -3.0050    7.4863    0.0000 O   0  0  0  0  0  0  0  0  0  0  0  0
   -0.7447    7.4863    0.0000 O   0  0  0  0  0  0  0  0  0  0  0  0
   -1.0582    9.1456    0.0000 C   0  0  0  0  0  0  0  0  0  0  0  0
   -0.2482    9.9818    0.0000 C   0  0  0  0  0  0  0  0  0  0  0  0
   -0.5618   11.6411    0.0000 C   0  0  0  0  0  0  0  0  0  0  0  0
    0.2482   12.4773    0.0000 C   0  0  0  0  0  0  0  0  0  0  0  0
   -1.9989   12.4773    0.0000 C   0  0  0  0  0  0  0  0  0  0  0  0
   -0.0653   14.1366    0.0000 C   0  0  0  0  0  0  0  0  0  0  0  0
    0.7447   14.9858    0.0000 C   0  0  0  0  0  0  0  0  0  0  0  0
    0.4311   16.6451    0.0000 C   0  0  0  0  0  0  0  0  0  0  0  0
    1.2542   17.4813    0.0000 C   0  0  0  0  0  0  0  0  0  0  0  0
   -1.0060   17.4813    0.0000 C   0  0  0  0  0  0  0  0  0  0  0  0
  1  2  1  0
  2  3  2  0
  2  4  1  0
  3  5  1  0
  4  6  2  0
  5  7  2  0
  7  8  1  0
  8  9  2  0
  8 10  1  0
 10 11  1  0
 11 12  1  0
 12 13  2  0
 13 14  1  0
 13 15  1  0
 14 16  1  0
 16 17  1  0
 17 18  2  0
 18 19  1  0
 18 20  1  0
  6  7  1  0
M  END
>  <Structure No>
371

>  <Molecule Name>
[(2E)-3,7-dimethylocta-2,6-dienyl] 4-bromobenzoate

>  <PubChem CID>
52920580

>  <SMILES>
CC(C)=CCC/C(\C)=C/COC(c(cc1)ccc1Br)=O

>  <InChIKey>
DZZYLTXXLXPPPS-SDNWHVSQSA-N

>  <Molecular Formula>
C17H21O2Br

>  <Target Organism>
Acyrthosiphon pisum

>  <Reference DOI>
10.1021/jf104712c

>  <Activity Label>
2

>  <Repellency>
Dual Active

>  <IUPAC>


>  <Common name>
[(2E)-3,7-dimethylocta-2,6-dienyl] 4-bromobenzoate

$$$$
Compound 372
     RDKit          2D

 20 20  0  0  0  0  0  0  0  0999 V2000
    0.0000    0.0000    0.0000 F   0  0  0  0  0  0  0  0  0  0  0  0
    1.3006    0.7449    0.0000 C   0  0  0  0  0  0  0  0  0  0  0  0
    2.0456   -0.5557    0.0000 F   0  0  0  0  0  0  0  0  0  0  0  0
    0.5557    2.0456    0.0000 F   0  0  0  0  0  0  0  0  0  0  0  0
    2.6013    1.4898    0.0000 C   0  0  0  0  0  0  0  0  0  0  0  0
    2.6013    2.9915    0.0000 C   0  0  0  0  0  0  0  0  0  0  0  0
    3.9020    0.7449    0.0000 C   0  0  0  0  0  0  0  0  0  0  0  0
    3.9020    3.7364    0.0000 C   0  0  0  0  0  0  0  0  0  0  0  0
    5.2027    1.4898    0.0000 C   0  0  0  0  0  0  0  0  0  0  0  0
    3.9020    5.2381    0.0000 N   0  0  0  0  0  0  0  0  0  0  0  0
    5.2027    2.9797    0.0000 C   0  0  0  0  0  0  0  0  0  0  0  0
    5.2027    5.9831    0.0000 C   0  0  0  0  0  0  0  0  0  0  0  0
    6.5033    5.2381    0.0000 O   0  0  0  0  0  0  0  0  0  0  0  0
    5.2027    7.4848    0.0000 C   0  0  0  0  0  0  0  0  0  0  0  0
    3.7010    7.4848    0.0000 F   0  0  0  0  0  0  0  0  0  0  0  0
    6.7044    7.4848    0.0000 F   0  0  0  0  0  0  0  0  0  0  0  0
    5.2027    8.9865    0.0000 C   0  0  0  0  0  0  0  0  0  0  0  0
    5.2027   10.4882    0.0000 F   0  0  0  0  0  0  0  0  0  0  0  0
    6.7044    8.9865    0.0000 F   0  0  0  0  0  0  0  0  0  0  0  0
    3.7010    8.9865    0.0000 F   0  0  0  0  0  0  0  0  0  0  0  0
  1  2  1  0
  2  3  1  0
  2  4  1  0
  2  5  1  0
  5  6  2  0
  5  7  1  0
  6  8  1  0
  7  9  2  0
  8 10  1  0
  8 11  2  0
 10 12  1  0
 12 13  2  0
 12 14  1  0
 14 15  1  0
 14 16  1  0
 14 17  1  0
 17 18  1  0
 17 19  1  0
 17 20  1  0
  9 11  1  0
M  END
>  <Structure No>
372

>  <Molecule Name>
2,2,3,3,3-pentafluoro-N-[3-(trifluoromethyl)phenyl]propanamide

>  <PubChem CID>
1958700

>  <SMILES>
C1=CC(=CC(=C1)NC(=O)C(C(F)(F)F)(F)F)C(F)(F)F

>  <InChIKey>
WOWXFIYLCFILGE-UHFFFAOYSA-N

>  <Molecular Formula>
C10H5F8NO

>  <Target Organism>
Aedes aegypti

>  <Reference DOI>
10.1016/j.pestbp.2018.08.006

>  <Activity Label>
2

>  <Repellency>
Dual Active

>  <IUPAC>


>  <Common name>
2,2,3,3,3-pentafluoro-N-(3-(trifluoromethyl)phenyl)propanamide

$$$$
Compound 373
     RDKit          2D

 21 21  0  0  0  0  0  0  0  0999 V2000
    0.0000    0.0000    0.0000 F   0  0  0  0  0  0  0  0  0  0  0  0
   -1.4467   -0.5524    0.0000 C   0  0  0  0  0  0  0  0  0  0  0  0
   -2.8935    0.2762    0.0000 C   0  0  0  0  0  0  0  0  0  0  0  0
   -1.7361   -1.6440    0.0000 C   0  0  0  0  0  0  0  0  0  0  0  0
   -4.3403   -0.2762    0.0000 C   0  0  0  0  0  0  0  0  0  0  0  0
   -3.1828    1.9465    0.0000 C   0  0  0  0  0  0  0  0  0  0  0  0
   -3.1828   -2.1964    0.0000 C   0  0  0  0  0  0  0  0  0  0  0  0
   -5.7870    0.5524    0.0000 F   0  0  0  0  0  0  0  0  0  0  0  0
   -4.6296   -1.3678    0.0000 C   0  0  0  0  0  0  0  0  0  0  0  0
   -4.6296    2.8014    0.0000 O   0  0  0  0  0  0  0  0  0  0  0  0
   -2.3148    2.8014    0.0000 O   0  0  0  0  0  0  0  0  0  0  0  0
   -2.6041    4.4718    0.0000 C   0  0  0  0  0  0  0  0  0  0  0  0
   -1.7361    5.3267    0.0000 C   0  0  0  0  0  0  0  0  0  0  0  0
   -2.0254    6.9971    0.0000 C   0  0  0  0  0  0  0  0  0  0  0  0
   -1.1574    7.8520    0.0000 C   0  0  0  0  0  0  0  0  0  0  0  0
   -3.4722    7.8520    0.0000 C   0  0  0  0  0  0  0  0  0  0  0  0
   -1.4467    9.5223    0.0000 C   0  0  0  0  0  0  0  0  0  0  0  0
   -0.5787   10.3772    0.0000 C   0  0  0  0  0  0  0  0  0  0  0  0
   -0.8680   12.0476    0.0000 C   0  0  0  0  0  0  0  0  0  0  0  0
    0.0000   12.8894    0.0000 C   0  0  0  0  0  0  0  0  0  0  0  0
   -2.3148   12.8894    0.0000 C   0  0  0  0  0  0  0  0  0  0  0  0
  1  2  1  0
  2  3  2  0
  2  4  1  0
  3  5  1  0
  3  6  1  0
  4  7  2  0
  5  8  1  0
  5  9  2  0
  6 10  2  0
  6 11  1  0
 11 12  1  0
 12 13  1  0
 13 14  2  0
 14 15  1  0
 14 16  1  0
 15 17  1  0
 17 18  1  0
 18 19  2  0
 19 20  1  0
 19 21  1  0
  7  9  1  0
M  END
>  <Structure No>
373

>  <Molecule Name>
[(2E)-3,7-dimethylocta-2,6-dienyl] 2,6-difluorobenzoate

>  <PubChem CID>
52920640

>  <SMILES>
CC(C)=CCC/C(\C)=C/COC(c(c(F)ccc1)c1F)=O

>  <InChIKey>
DCRNWHSATSVXGC-JLHYYAGUSA-N

>  <Molecular Formula>
C17H20O2F2

>  <Target Organism>
Acyrthosiphon pisum

>  <Reference DOI>
10.1021/jf104712c

>  <Activity Label>
2

>  <Repellency>
Dual Active

>  <IUPAC>


>  <Common name>
[(2E)-3,7-dimethylocta-2,6-dienyl] 2,6-difluorobenzoate

$$$$
Compound 374
     RDKit          2D

 22 22  0  0  0  0  0  0  0  0999 V2000
    0.0000    0.0000    0.0000 O   0  0  0  0  0  0  0  0  0  0  0  0
   -1.3879   -0.6939    0.0000 C   0  0  0  0  0  0  0  0  0  0  0  0
   -2.7759    0.1009    0.0000 N   0  0  0  0  0  0  0  0  0  0  0  0
   -1.5015   -2.0693    0.0000 C   0  0  0  0  0  0  0  0  0  0  0  0
   -2.8895    1.7034    0.0000 C   0  0  0  0  0  0  0  0  0  0  0  0
   -0.3406   -2.7633    0.0000 C   0  0  0  0  0  0  0  0  0  0  0  0
   -4.2774    2.5109    0.0000 C   0  0  0  0  0  0  0  0  0  0  0  0
   -0.4542   -4.1386    0.0000 C   0  0  0  0  0  0  0  0  0  0  0  0
   -4.3910    4.1134    0.0000 C   0  0  0  0  0  0  0  0  0  0  0  0
   -5.6654    1.8169    0.0000 C   0  0  0  0  0  0  0  0  0  0  0  0
    0.7066   -4.8326    0.0000 C   0  0  0  0  0  0  0  0  0  0  0  0
   -5.7790    4.9209    0.0000 C   0  0  0  0  0  0  0  0  0  0  0  0
   -7.0534    2.6245    0.0000 C   0  0  0  0  0  0  0  0  0  0  0  0
    0.5930   -6.2080    0.0000 C   0  0  0  0  0  0  0  0  0  0  0  0
   -5.8925    6.5234    0.0000 O   0  0  0  0  0  0  0  0  0  0  0  0
   -7.1669    4.2270    0.0000 C   0  0  0  0  0  0  0  0  0  0  0  0
    1.7538   -6.9020    0.0000 C   0  0  0  0  0  0  0  0  0  0  0  0
   -4.7317    7.3310    0.0000 C   0  0  0  0  0  0  0  0  0  0  0  0
   -8.5549    5.0345    0.0000 O   0  0  0  0  0  0  0  0  0  0  0  0
    1.6403   -8.2773    0.0000 C   0  0  0  0  0  0  0  0  0  0  0  0
    2.8011   -8.9713    0.0000 C   0  0  0  0  0  0  0  0  0  0  0  0
    0.2523   -8.9713    0.0000 C   0  0  0  0  0  0  0  0  0  0  0  0
  1  2  2  0
  2  3  1  0
  2  4  1  0
  3  5  1  0
  4  6  1  0
  5  7  1  0
  6  8  1  0
  7  9  2  0
  7 10  1  0
  8 11  1  0
  9 12  1  0
 10 13  2  0
 11 14  1  0
 12 15  1  0
 12 16  2  0
 14 17  2  0
 15 18  1  0
 16 19  1  0
 17 20  1  0
 20 21  1  0
 20 22  1  0
 13 16  1  0
M  END
>  <Structure No>
374

>  <Molecule Name>
Capsaicin

>  <PubChem CID>
1548943

>  <SMILES>
CC(C)/C=C/CCCCC(NCc(cc1)cc(OC)c1O)=O

>  <InChIKey>
YKPUWZUDDOIDPM-SOFGYWHQSA-N

>  <Molecular Formula>
C18H27NO3

>  <Target Organism>
Drosophila melanogaster

>  <Reference DOI>
10.1038/s41598-020-66900-2

>  <Activity Label>
2

>  <Repellency>
Dual Active

>  <IUPAC>


>  <Common name>
Capsaicin

$$$$
Compound 375
     RDKit          2D

 22 23  0  0  0  0  0  0  0  0999 V2000
    0.0000    0.0000    0.0000 O   0  0  0  0  0  0  0  0  0  0  0  0
   -0.9037    1.2411    0.0000 C   0  0  0  0  0  0  0  0  0  0  0  0
   -2.4341    1.2893    0.0000 C   0  0  0  0  0  0  0  0  0  0  0  0
   -0.4820    2.6992    0.0000 C   0  0  0  0  0  0  0  0  0  0  0  0
   -2.9522    2.7474    0.0000 C   0  0  0  0  0  0  0  0  0  0  0  0
   -3.3378    0.1446    0.0000 C   0  0  0  0  0  0  0  0  0  0  0  0
   -1.7231    3.6029    0.0000 C   0  0  0  0  0  0  0  0  0  0  0  0
   -4.4103    3.2655    0.0000 C   0  0  0  0  0  0  0  0  0  0  0  0
   -2.7594   -1.1568    0.0000 C   0  0  0  0  0  0  0  0  0  0  0  0
   -1.7713    5.1333    0.0000 O   0  0  0  0  0  0  0  0  0  0  0  0
   -3.6632   -2.3015    0.0000 C   0  0  0  0  0  0  0  0  0  0  0  0
   -0.5422    5.8924    0.0000 C   0  0  0  0  0  0  0  0  0  0  0  0
    0.6868    5.1815    0.0000 O   0  0  0  0  0  0  0  0  0  0  0  0
   -0.5904    7.4228    0.0000 C   0  0  0  0  0  0  0  0  0  0  0  0
    0.1205    8.7483    0.0000 C   0  0  0  0  0  0  0  0  0  0  0  0
   -1.3616    8.7483    0.0000 C   0  0  0  0  0  0  0  0  0  0  0  0
    0.0723   10.2787    0.0000 C   0  0  0  0  0  0  0  0  0  0  0  0
    1.3496    8.0373    0.0000 C   0  0  0  0  0  0  0  0  0  0  0  0
   -2.6871    9.5195    0.0000 C   0  0  0  0  0  0  0  0  0  0  0  0
   -2.7353   11.0499    0.0000 C   0  0  0  0  0  0  0  0  0  0  0  0
   -4.0608   11.8211    0.0000 C   0  0  0  0  0  0  0  0  0  0  0  0
   -1.5062   11.8211    0.0000 C   0  0  0  0  0  0  0  0  0  0  0  0
  1  2  2  0
  2  3  1  0
  2  4  1  0
  3  5  2  0
  3  6  1  0
  4  7  1  0
  5  8  1  0
  6  9  1  0
  7 10  1  0
  9 11  2  0
 10 12  1  0
 12 13  2  0
 12 14  1  0
 14 15  1  0
 14 16  1  0
 15 17  1  0
 15 18  1  0
 16 19  1  0
 19 20  2  0
 20 21  1  0
 20 22  1  0
  5  7  1  0
 15 16  1  0
M  END
>  <Structure No>
375

>  <Molecule Name>
Allethrins

>  <PubChem CID>
11442

>  <SMILES>
CC(C)(C1C=C(C)C)C1C(OC(C1)C(C)=C(CC=C)C1=O)=O

>  <InChIKey>
ZCVAOQKBXKSDMS-UHFFFAOYSA-N

>  <Molecular Formula>
C19H26O3

>  <Target Organism>
Aedes atlanticus Dyar e Knab, Psorophora ferox Humboldt, Psorophora columbiae Dyar e Knab e Aedes taeniorhynchus Wiedemann

>  <Reference DOI>
10.1093/jme/tjv065

>  <Activity Label>
2

>  <Repellency>
Dual Active

>  <IUPAC>
(2-methyl-4-oxo-3-prop-2-enylcyclopent-2-en-1-yl) 2,2-dimethyl-3-(2-methylprop-1-enyl)cyclopropane-1-carboxylate

>  <Common name>
Allethrins

$$$$
Compound 376
     RDKit          2D

 23 23  0  0  0  0  0  0  0  0999 V2000
    0.0000    0.0000    0.0000 O   0  0  0  0  0  0  0  0  0  0  0  0
   -1.5101    0.8648    0.0000 C   0  0  0  0  0  0  0  0  0  0  0  0
   -3.0202    0.2882    0.0000 O   0  0  0  0  0  0  0  0  0  0  0  0
   -1.8121    2.6084    0.0000 C   0  0  0  0  0  0  0  0  0  0  0  0
   -3.3222   -0.8511    0.0000 C   0  0  0  0  0  0  0  0  0  0  0  0
   -3.3222    3.4870    0.0000 C   0  0  0  0  0  0  0  0  0  0  0  0
   -0.9060    3.4870    0.0000 C   0  0  0  0  0  0  0  0  0  0  0  0
   -4.8324   -1.4277    0.0000 C   0  0  0  0  0  0  0  0  0  0  0  0
   -3.6243    5.2305    0.0000 C   0  0  0  0  0  0  0  0  0  0  0  0
   -1.2081    5.2305    0.0000 C   0  0  0  0  0  0  0  0  0  0  0  0
   -5.1344   -2.5672    0.0000 C   0  0  0  0  0  0  0  0  0  0  0  0
   -2.7182    6.1091    0.0000 C   0  0  0  0  0  0  0  0  0  0  0  0
   -6.6445   -3.1438    0.0000 C   0  0  0  0  0  0  0  0  0  0  0  0
   -4.2283   -3.1438    0.0000 C   0  0  0  0  0  0  0  0  0  0  0  0
   -3.0202    7.8526    0.0000 C   0  0  0  0  0  0  0  0  0  0  0  0
   -6.9466   -4.2832    0.0000 C   0  0  0  0  0  0  0  0  0  0  0  0
   -3.3222    9.5961    0.0000 C   0  0  0  0  0  0  0  0  0  0  0  0
   -1.8807    8.1547    0.0000 C   0  0  0  0  0  0  0  0  0  0  0  0
   -4.7637    8.1547    0.0000 C   0  0  0  0  0  0  0  0  0  0  0  0
   -8.4567   -4.8598    0.0000 C   0  0  0  0  0  0  0  0  0  0  0  0
   -8.7587   -5.9993    0.0000 C   0  0  0  0  0  0  0  0  0  0  0  0
  -10.2688   -6.5759    0.0000 C   0  0  0  0  0  0  0  0  0  0  0  0
   -7.8526   -6.5759    0.0000 C   0  0  0  0  0  0  0  0  0  0  0  0
  1  2  2  0
  2  3  1  0
  2  4  1  0
  3  5  1  0
  4  6  2  0
  4  7  1  0
  5  8  1  0
  6  9  1  0
  7 10  2  0
  8 11  2  0
  9 12  2  0
 11 13  1  0
 11 14  1  0
 12 15  1  0
 13 16  1  0
 15 17  1  0
 15 18  1  0
 15 19  1  0
 16 20  1  0
 20 21  2  0
 21 22  1  0
 21 23  1  0
 10 12  1  0
M  END
>  <Structure No>
376

>  <Molecule Name>
[(2E)-3,7-dimethylocta-2,6-dienyl] 4-tert-butylbenzoate

>  <PubChem CID>
52920579

>  <SMILES>
CC(C)(C)c(cc1)ccc1C(OC/C=C(\C)/CCC=C(C)C)=O

>  <InChIKey>
GOGSQOVURRSCIX-SAPNQHFASA-N

>  <Molecular Formula>
C21H30O2

>  <Target Organism>
Acyrthosiphon pisum

>  <Reference DOI>
10.1021/jf104712c

>  <Activity Label>
2

>  <Repellency>
Dual Active

>  <IUPAC>


>  <Common name>
[(2E)-3,7-dimethylocta-2,6-dienyl] 4-tert-butylbenzoate

$$$$
Compound 377
     RDKit          2D

 23 23  0  0  0  0  0  0  0  0999 V2000
    0.0000    0.0000    0.0000 O   0  0  0  0  0  0  0  0  0  0  0  0
    0.0677    1.6808    0.0000 C   0  0  0  0  0  0  0  0  0  0  0  0
   -1.2064    2.8331    0.0000 O   0  0  0  0  0  0  0  0  0  0  0  0
    1.1386    2.4942    0.0000 C   0  0  0  0  0  0  0  0  0  0  0  0
   -2.8466    2.5891    0.0000 C   0  0  0  0  0  0  0  0  0  0  0  0
    1.9926    1.8435    0.0000 N   0  0  0  0  0  0  0  0  0  0  0  0
    1.3826    4.1344    0.0000 C   0  0  0  0  0  0  0  0  0  0  0  0
   -4.1208    3.7413    0.0000 C   0  0  0  0  0  0  0  0  0  0  0  0
    2.8466    2.8602    0.0000 N   0  0  0  0  0  0  0  0  0  0  0  0
    1.7079    0.6913    0.0000 C   0  0  0  0  0  0  0  0  0  0  0  0
    2.5348    4.4191    0.0000 C   0  0  0  0  0  0  0  0  0  0  0  0
   -5.7611    3.4973    0.0000 C   0  0  0  0  0  0  0  0  0  0  0  0
    1.4233   -0.4608    0.0000 C   0  0  0  0  0  0  0  0  0  0  0  0
    2.8602    0.9759    0.0000 C   0  0  0  0  0  0  0  0  0  0  0  0
   -0.0135    0.9759    0.0000 C   0  0  0  0  0  0  0  0  0  0  0  0
    3.1991    5.8153    0.0000 C   0  0  0  0  0  0  0  0  0  0  0  0
   -7.0353    4.6495    0.0000 C   0  0  0  0  0  0  0  0  0  0  0  0
   -6.3982    2.3857    0.0000 C   0  0  0  0  0  0  0  0  0  0  0  0
   -8.6755    4.4055    0.0000 C   0  0  0  0  0  0  0  0  0  0  0  0
   -9.9497    5.5577    0.0000 C   0  0  0  0  0  0  0  0  0  0  0  0
  -11.5899    5.3137    0.0000 C   0  0  0  0  0  0  0  0  0  0  0  0
  -12.8641    6.4659    0.0000 C   0  0  0  0  0  0  0  0  0  0  0  0
  -12.2270    4.2022    0.0000 C   0  0  0  0  0  0  0  0  0  0  0  0
  1  2  2  0
  2  3  1  0
  2  4  1  0
  3  5  1  0
  4  6  1  0
  4  7  2  0
  5  8  1  0
  6  9  1  0
  6 10  1  0
  7 11  1  0
  8 12  2  0
 10 13  1  0
 10 14  1  0
 10 15  1  0
 11 16  1  0
 12 17  1  0
 12 18  1  0
 17 19  1  0
 19 20  1  0
 20 21  2  0
 21 22  1  0
 21 23  1  0
  9 11  2  0
M  END
>  <Structure No>
377

>  <Molecule Name>
[(2E)-3,7-dimethylocta-2,6-dienyl] 2-tert-butyl-5-methylpyrazole-3-carboxylate

>  <PubChem CID>
52921547

>  <SMILES>
CC(C)(C)[n]1nc(C)cc1C(OC/C=C(\C)/CCC=C(C)C)=O

>  <InChIKey>
SVWVMWIAKBOMCH-RVDMUPIBSA-N

>  <Molecular Formula>
C19H30N2O2

>  <Target Organism>
Acyrthosiphon pisum

>  <Reference DOI>
10.1021/jf104712c

>  <Activity Label>
2

>  <Repellency>
Dual Active

>  <IUPAC>


>  <Common name>
[(2E)-3,7-dimethylocta-2,6-dienyl] 2-tert-butyl-5-methylpyrazole-3-carboxylate

$$$$
Compound 378
     RDKit          2D

 25 26  0  0  0  0  0  0  0  0999 V2000
    0.0000    0.0000    0.0000 O   0  0  0  0  0  0  0  0  0  0  0  0
   -0.6630    1.7872    0.0000 C   0  0  0  0  0  0  0  0  0  0  0  0
    0.1873    3.0124    0.0000 O   0  0  0  0  0  0  0  0  0  0  0  0
   -2.4070    2.6376    0.0000 C   0  0  0  0  0  0  0  0  0  0  0  0
    1.3548    2.7385    0.0000 C   0  0  0  0  0  0  0  0  0  0  0  0
   -3.8916    1.9170    0.0000 N   0  0  0  0  0  0  0  0  0  0  0  0
   -3.2574    4.3817    0.0000 C   0  0  0  0  0  0  0  0  0  0  0  0
    2.2052    3.9637    0.0000 C   0  0  0  0  0  0  0  0  0  0  0  0
   -5.3762    2.9980    0.0000 N   0  0  0  0  0  0  0  0  0  0  0  0
   -4.1799    0.6630    0.0000 C   0  0  0  0  0  0  0  0  0  0  0  0
   -5.0880    4.6700    0.0000 C   0  0  0  0  0  0  0  0  0  0  0  0
    3.3727    3.6898    0.0000 C   0  0  0  0  0  0  0  0  0  0  0  0
   -3.1709    0.0288    0.0000 C   0  0  0  0  0  0  0  0  0  0  0  0
   -5.7654    0.0288    0.0000 C   0  0  0  0  0  0  0  0  0  0  0  0
   -6.1690    6.1546    0.0000 C   0  0  0  0  0  0  0  0  0  0  0  0
    4.2231    4.9150    0.0000 C   0  0  0  0  0  0  0  0  0  0  0  0
    3.4592    2.4791    0.0000 C   0  0  0  0  0  0  0  0  0  0  0  0
   -3.4592   -1.2251    0.0000 C   0  0  0  0  0  0  0  0  0  0  0  0
   -6.0537   -1.2251    0.0000 C   0  0  0  0  0  0  0  0  0  0  0  0
    5.3906    4.6411    0.0000 C   0  0  0  0  0  0  0  0  0  0  0  0
   -5.0447   -1.8593    0.0000 C   0  0  0  0  0  0  0  0  0  0  0  0
    6.2410    5.8663    0.0000 C   0  0  0  0  0  0  0  0  0  0  0  0
    7.4085    5.5924    0.0000 C   0  0  0  0  0  0  0  0  0  0  0  0
    8.2589    6.8176    0.0000 C   0  0  0  0  0  0  0  0  0  0  0  0
    7.4950    4.3817    0.0000 C   0  0  0  0  0  0  0  0  0  0  0  0
  1  2  2  0
  2  3  1  0
  2  4  1  0
  3  5  1  0
  4  6  1  0
  4  7  2  0
  5  8  1  0
  6  9  1  0
  6 10  1  0
  7 11  1  0
  8 12  2  0
 10 13  2  0
 10 14  1  0
 11 15  1  0
 12 16  1  0
 12 17  1  0
 13 18  1  0
 14 19  2  0
 16 20  1  0
 18 21  2  0
 20 22  1  0
 22 23  2  0
 23 24  1  0
 23 25  1  0
  9 11  2  0
 19 21  1  0
M  END
>  <Structure No>
378

>  <Molecule Name>
[(2E)-3,7-dimethylocta-2,6-dienyl] 5-methyl-2-phenylpyrazole-3-carboxylate

>  <PubChem CID>
52921548

>  <SMILES>
CC(C)=CCC/C(\C)=C/COC(c1cc(C)n[n]1-c1ccccc1)=O

>  <InChIKey>
GKISULDNYAUNTL-GHRIWEEISA-N

>  <Molecular Formula>
C21H26N2O2

>  <Target Organism>
Acyrthosiphon pisum

>  <Reference DOI>
10.1021/jf104712c

>  <Activity Label>
2

>  <Repellency>
Dual Active

>  <IUPAC>


>  <Common name>
[(2E)-3,7-dimethylocta-2,6-dienyl] 5-methyl-2-phenylpyrazole-3-carboxylate

$$$$
Compound 379
     RDKit          2D

 25 25  0  0  0  0  0  0  0  0999 V2000
    0.0000    0.0000    0.0000 O   0  0  0  0  0  0  0  0  0  0  0  0
    0.0930    1.6486    0.0000 C   0  0  0  0  0  0  0  0  0  0  0  0
   -1.1566    2.7787    0.0000 O   0  0  0  0  0  0  0  0  0  0  0  0
    1.1965    2.4197    0.0000 C   0  0  0  0  0  0  0  0  0  0  0  0
   -2.7654    2.5128    0.0000 C   0  0  0  0  0  0  0  0  0  0  0  0
    2.0607    1.7416    0.0000 N   0  0  0  0  0  0  0  0  0  0  0  0
    1.4624    4.0284    0.0000 C   0  0  0  0  0  0  0  0  0  0  0  0
   -4.0151    3.6429    0.0000 C   0  0  0  0  0  0  0  0  0  0  0  0
    2.9249    2.7388    0.0000 N   0  0  0  0  0  0  0  0  0  0  0  0
    1.8081    0.5584    0.0000 C   0  0  0  0  0  0  0  0  0  0  0  0
    2.6457    4.2810    0.0000 C   0  0  0  0  0  0  0  0  0  0  0  0
   -5.6239    3.3770    0.0000 C   0  0  0  0  0  0  0  0  0  0  0  0
    1.5555   -0.6248    0.0000 C   0  0  0  0  0  0  0  0  0  0  0  0
    2.9914    0.8110    0.0000 C   0  0  0  0  0  0  0  0  0  0  0  0
    0.1196    0.8110    0.0000 C   0  0  0  0  0  0  0  0  0  0  0  0
    3.3105    5.6504    0.0000 C   0  0  0  0  0  0  0  0  0  0  0  0
   -6.8736    4.5071    0.0000 C   0  0  0  0  0  0  0  0  0  0  0  0
   -6.2221    2.2336    0.0000 C   0  0  0  0  0  0  0  0  0  0  0  0
    2.4596    7.1927    0.0000 C   0  0  0  0  0  0  0  0  0  0  0  0
   -8.4823    4.2411    0.0000 C   0  0  0  0  0  0  0  0  0  0  0  0
    3.1376    8.5621    0.0000 C   0  0  0  0  0  0  0  0  0  0  0  0
   -9.7321    5.3712    0.0000 C   0  0  0  0  0  0  0  0  0  0  0  0
  -11.3408    5.1053    0.0000 C   0  0  0  0  0  0  0  0  0  0  0  0
  -12.5906    6.2354    0.0000 C   0  0  0  0  0  0  0  0  0  0  0  0
  -11.9391    3.9619    0.0000 C   0  0  0  0  0  0  0  0  0  0  0  0
  1  2  2  0
  2  3  1  0
  2  4  1  0
  3  5  1  0
  4  6  1  0
  4  7  2  0
  5  8  1  0
  6  9  1  0
  6 10  1  0
  7 11  1  0
  8 12  2  0
 10 13  1  0
 10 14  1  0
 10 15  1  0
 11 16  1  0
 12 17  1  0
 12 18  1  0
 16 19  1  0
 17 20  1  0
 19 21  1  0
 20 22  1  0
 22 23  2  0
 23 24  1  0
 23 25  1  0
  9 11  2  0
M  END
>  <Structure No>
379

>  <Molecule Name>
[(2E)-3,7-dimethylocta-2,6-dienyl] 2-tert-butyl-5-propyl-pyrazole-3-carboxylate

>  <PubChem CID>
52921549

>  <SMILES>
CCCc1n[n](C(C)(C)C)c(C(OC/C=C(\C)/CCC=C(C)C)=O)c1

>  <InChIKey>
ZWCGHMUFMOUSSG-GHRIWEEISA-N

>  <Molecular Formula>
C21H34N2O2

>  <Target Organism>
Acyrthosiphon pisum

>  <Reference DOI>
10.1021/jf104712c

>  <Activity Label>
2

>  <Repellency>
Dual Active

>  <IUPAC>


>  <Common name>
[(2E)-3,7-dimethylocta-2,6-dienyl] 2-tert-butyl-5-propyl-pyrazole-3-carboxylate

$$$$
Compound 380
     RDKit          2D

 25 25  0  0  0  0  0  0  0  0999 V2000
    0.0000    0.0000    0.0000 O   0  0  0  0  0  0  0  0  0  0  0  0
    0.1192    1.6432    0.0000 C   0  0  0  0  0  0  0  0  0  0  0  0
   -1.1264    2.7696    0.0000 O   0  0  0  0  0  0  0  0  0  0  0  0
    1.2722    2.3853    0.0000 C   0  0  0  0  0  0  0  0  0  0  0  0
   -2.7299    2.4781    0.0000 C   0  0  0  0  0  0  0  0  0  0  0  0
    2.1865    1.6830    0.0000 N   0  0  0  0  0  0  0  0  0  0  0  0
    1.5637    3.9888    0.0000 C   0  0  0  0  0  0  0  0  0  0  0  0
   -3.9756    3.6045    0.0000 C   0  0  0  0  0  0  0  0  0  0  0  0
    3.1009    2.6769    0.0000 N   0  0  0  0  0  0  0  0  0  0  0  0
    1.9613    0.4505    0.0000 C   0  0  0  0  0  0  0  0  0  0  0  0
    2.7961    4.2141    0.0000 C   0  0  0  0  0  0  0  0  0  0  0  0
   -5.5791    3.3130    0.0000 C   0  0  0  0  0  0  0  0  0  0  0  0
    1.7360   -0.7818    0.0000 C   0  0  0  0  0  0  0  0  0  0  0  0
    3.1937    0.6758    0.0000 C   0  0  0  0  0  0  0  0  0  0  0  0
    0.2782    0.6758    0.0000 C   0  0  0  0  0  0  0  0  0  0  0  0
    3.4985    5.5791    0.0000 C   0  0  0  0  0  0  0  0  0  0  0  0
   -6.8248    4.4394    0.0000 C   0  0  0  0  0  0  0  0  0  0  0  0
   -6.1489    2.1203    0.0000 C   0  0  0  0  0  0  0  0  0  0  0  0
    2.6504    7.1163    0.0000 C   0  0  0  0  0  0  0  0  0  0  0  0
    4.7177    5.6321    0.0000 C   0  0  0  0  0  0  0  0  0  0  0  0
   -8.4283    4.1479    0.0000 C   0  0  0  0  0  0  0  0  0  0  0  0
   -9.6740    5.2743    0.0000 C   0  0  0  0  0  0  0  0  0  0  0  0
  -11.2775    4.9827    0.0000 C   0  0  0  0  0  0  0  0  0  0  0  0
  -12.5232    6.1092    0.0000 C   0  0  0  0  0  0  0  0  0  0  0  0
  -11.8473    3.7901    0.0000 C   0  0  0  0  0  0  0  0  0  0  0  0
  1  2  2  0
  2  3  1  0
  2  4  1  0
  3  5  1  0
  4  6  1  0
  4  7  2  0
  5  8  1  0
  6  9  1  0
  6 10  1  0
  7 11  1  0
  8 12  2  0
 10 13  1  0
 10 14  1  0
 10 15  1  0
 11 16  1  0
 12 17  1  0
 12 18  1  0
 16 19  1  0
 16 20  1  0
 17 21  1  0
 21 22  1  0
 22 23  2  0
 23 24  1  0
 23 25  1  0
  9 11  2  0
M  END
>  <Structure No>
380

>  <Molecule Name>
[(2E)-3,7-dimethylocta-2,6-dienyl] 2-tert-butyl-5-propan-2-ylpyrazole-3-carboxylate

>  <PubChem CID>
52921551

>  <SMILES>
CC(C)c1n[n](C(C)(C)C)c(C(OC/C=C(\C)/CCC=C(C)C)=O)c1

>  <InChIKey>
VILDBNRLFYLAMS-SFQUDFHCSA-N

>  <Molecular Formula>
C21H34N2O2

>  <Target Organism>
Acyrthosiphon pisum

>  <Reference DOI>
10.1021/jf104712c

>  <Activity Label>
2

>  <Repellency>
Dual Active

>  <IUPAC>


>  <Common name>
[(2E)-3,7-dimethylocta-2,6-dienyl] 2-tert-butyl-5-propan-2-ylpyrazole-3-carboxylate

$$$$
Compound 381
     RDKit          2D

 26 28  0  0  0  0  0  0  0  0999 V2000
    0.0000    0.0000    0.0000 Cl  0  0  0  0  0  0  0  0  0  0  0  0
   -1.3617    0.7799    0.0000 C   0  0  0  0  0  0  0  0  0  0  0  0
   -2.7235    0.0742    0.0000 Cl  0  0  0  0  0  0  0  0  0  0  0  0
   -1.4484    2.3521    0.0000 C   0  0  0  0  0  0  0  0  0  0  0  0
   -2.8102    3.1444    0.0000 C   0  0  0  0  0  0  0  0  0  0  0  0
   -4.3824    3.2311    0.0000 C   0  0  0  0  0  0  0  0  0  0  0  0
   -3.6025    4.5062    0.0000 C   0  0  0  0  0  0  0  0  0  0  0  0
   -4.4690    1.8322    0.0000 C   0  0  0  0  0  0  0  0  0  0  0  0
   -5.7442    4.0234    0.0000 C   0  0  0  0  0  0  0  0  0  0  0  0
   -3.6891    6.0784    0.0000 C   0  0  0  0  0  0  0  0  0  0  0  0
   -5.0509    6.8707    0.0000 O   0  0  0  0  0  0  0  0  0  0  0  0
   -2.5007    6.8707    0.0000 O   0  0  0  0  0  0  0  0  0  0  0  0
   -2.5873    8.4430    0.0000 C   0  0  0  0  0  0  0  0  0  0  0  0
   -1.3989    9.2353    0.0000 C   0  0  0  0  0  0  0  0  0  0  0  0
   -1.4855   10.8075    0.0000 C   0  0  0  0  0  0  0  0  0  0  0  0
   -0.2104    8.5296    0.0000 C   0  0  0  0  0  0  0  0  0  0  0  0
   -0.2971   11.5998    0.0000 C   0  0  0  0  0  0  0  0  0  0  0  0
    0.9780    9.3219    0.0000 C   0  0  0  0  0  0  0  0  0  0  0  0
   -0.3837   13.1720    0.0000 O   0  0  0  0  0  0  0  0  0  0  0  0
    0.8913   10.8942    0.0000 C   0  0  0  0  0  0  0  0  0  0  0  0
    0.8046   13.9643    0.0000 C   0  0  0  0  0  0  0  0  0  0  0  0
    0.7180   15.5366    0.0000 C   0  0  0  0  0  0  0  0  0  0  0  0
    1.9931   13.2587    0.0000 C   0  0  0  0  0  0  0  0  0  0  0  0
    1.9064   16.3289    0.0000 C   0  0  0  0  0  0  0  0  0  0  0  0
    3.1816   14.0510    0.0000 C   0  0  0  0  0  0  0  0  0  0  0  0
    3.0949   15.6232    0.0000 C   0  0  0  0  0  0  0  0  0  0  0  0
  1  2  1  0
  2  3  1  0
  2  4  2  0
  4  5  1  0
  5  6  1  0
  5  7  1  0
  6  8  1  0
  6  9  1  0
  7 10  1  0
 10 11  2  0
 10 12  1  0
 12 13  1  0
 13 14  1  0
 14 15  2  0
 14 16  1  0
 15 17  1  0
 16 18  2  0
 17 19  1  0
 17 20  2  0
 19 21  1  0
 21 22  2  0
 21 23  1  0
 22 24  1  0
 23 25  2  0
 24 26  2  0
  6  7  1  0
 18 20  1  0
 25 26  1  0
M  END
>  <Structure No>
381

>  <Molecule Name>
Permethrin

>  <PubChem CID>
40326

>  <SMILES>
CC(C)(C1C=C(Cl)Cl)C1C(OCc1cc(Oc2ccccc2)ccc1)=O

>  <InChIKey>
RLLPVAHGXHCWKJ-UHFFFAOYSA-N

>  <Molecular Formula>
C21H20O3Cl2

>  <Target Organism>
Aleurocanthus Woglumi Ashby

>  <Reference DOI>
10.1093/milmed/163.5.324

>  <Activity Label>
2

>  <Repellency>
Dual Active

>  <IUPAC>
(3-phenoxyphenyl)methyl 3-(2,2-dichloroethenyl)-2,2-dimethylcyclopropane-1-carboxylate

>  <Common name>
Permethrin

$$$$
Compound 382
     RDKit          2D

  0  0  0  0  0  0  0  0  0  0999 V3000
M  V30 BEGIN CTAB
M  V30 COUNTS 27 28 0 0 0
M  V30 BEGIN ATOM
M  V30 1 O 0.000000 0.000000 0.000000 0
M  V30 2 C -1.472300 -0.425800 0.000000 0
M  V30 3 C -2.725700 0.486700 0.000000 0
M  V30 4 C -1.995600 -1.800900 0.000000 0
M  V30 5 C -3.979000 -0.328500 0.000000 0
M  V30 6 C -2.774400 2.032100 0.000000 0
M  V30 7 C -3.541000 -1.752200 0.000000 0
M  V30 8 C -5.451400 0.194600 0.000000 0
M  V30 9 C -1.533200 2.810900 0.000000 0
M  V30 10 O -4.453600 -2.908200 0.000000 0
M  V30 11 C -1.581800 4.356300 0.000000 0
M  V30 12 C -3.869500 -4.222400 0.000000 0
M  V30 13 C -0.340700 5.135000 0.000000 0
M  V30 14 O -2.433600 -4.331900 0.000000 0
M  V30 15 C -4.782200 -5.378400 0.000000 0
M  V30 16 C -0.389300 6.680400 0.000000 0
M  V30 17 C -4.989000 -6.814300 0.000000 0
M  V30 18 C -6.193700 -5.962500 0.000000 0
M  V30 19 C -5.901700 -7.970300 0.000000 0
M  V30 20 C -3.553100 -6.923800 0.000000 0
M  V30 21 C -7.726900 -5.755600 0.000000 0
M  V30 22 C -8.639600 -6.911600 0.000000 0
M  V30 23 C -10.172800 -6.704800 0.000000 0
M  V30 24 C -8.055500 -8.225800 0.000000 0
M  V30 25 O -10.854200 -5.293200 0.000000 0
M  V30 26 O -11.085400 -7.860800 0.000000 0
M  V30 27 C -12.618600 -7.653900 0.000000 0
M  V30 END ATOM
M  V30 BEGIN BOND
M  V30 1 2 1 2
M  V30 2 1 2 3
M  V30 3 1 2 4
M  V30 4 2 3 5
M  V30 5 1 3 6
M  V30 6 1 4 7
M  V30 7 1 5 8
M  V30 8 1 6 9
M  V30 9 1 7 10 CFG=3
M  V30 10 2 9 11
M  V30 11 1 10 12
M  V30 12 1 11 13
M  V30 13 2 12 14
M  V30 14 1 15 12 CFG=1
M  V30 15 2 13 16
M  V30 16 1 15 17
M  V30 17 1 15 18
M  V30 18 1 17 19
M  V30 19 1 17 20
M  V30 20 1 18 21 CFG=3
M  V30 21 2 21 22
M  V30 22 1 22 23
M  V30 23 1 22 24
M  V30 24 2 23 25
M  V30 25 1 23 26
M  V30 26 1 26 27
M  V30 27 1 5 7
M  V30 28 1 17 18
M  V30 END BOND
M  V30 BEGIN COLLECTION
M  V30 MDLV30/STEABS ATOMS=(3 7 15 18)
M  V30 END COLLECTION
M  V30 END CTAB
M  END
>  <Structure No>
382

>  <Molecule Name>
Pyrethrin

>  <PubChem CID>
6433155

>  <SMILES>
CC(C)([C@@H]1/C=C(\C)/C(OC)=O)[C@@H]1C(O[C@@H](C1)C(C)=C(C/C=C/C=C)C1=O)=O

>  <InChIKey>
VJFUPGQZSXIULQ-QYVAASDLSA-N

>  <Molecular Formula>
C22H28O5

>  <Target Organism>
Aedes aegypti

>  <Reference DOI>
10.1038/s41467-021-22847-0

>  <Activity Label>
2

>  <Repellency>
Dual Active

>  <IUPAC>


>  <Common name>
Pyrethrin

$$$$
Compound 383
     RDKit          2D

 27 28  0  0  0  0  0  0  0  0999 V2000
    0.0000    0.0000    0.0000 O   0  0  0  0  0  0  0  0  0  0  0  0
   -1.4281    0.8179    0.0000 C   0  0  0  0  0  0  0  0  0  0  0  0
   -2.8562    0.2077    0.0000 O   0  0  0  0  0  0  0  0  0  0  0  0
   -1.6488    2.4667    0.0000 C   0  0  0  0  0  0  0  0  0  0  0  0
   -4.2844    1.0386    0.0000 C   0  0  0  0  0  0  0  0  0  0  0  0
   -0.7530    3.4405    0.0000 N   0  0  0  0  0  0  0  0  0  0  0  0
   -2.9861    3.4405    0.0000 C   0  0  0  0  0  0  0  0  0  0  0  0
   -5.7125    0.4284    0.0000 C   0  0  0  0  0  0  0  0  0  0  0  0
   -1.4800    5.0114    0.0000 N   0  0  0  0  0  0  0  0  0  0  0  0
    0.3765    3.1548    0.0000 C   0  0  0  0  0  0  0  0  0  0  0  0
   -2.7004    5.0114    0.0000 C   0  0  0  0  0  0  0  0  0  0  0  0
   -7.1406    1.2593    0.0000 C   0  0  0  0  0  0  0  0  0  0  0  0
    0.4933    1.9864    0.0000 C   0  0  0  0  0  0  0  0  0  0  0  0
    1.1814    4.2584    0.0000 C   0  0  0  0  0  0  0  0  0  0  0  0
   -3.6742    6.3487    0.0000 C   0  0  0  0  0  0  0  0  0  0  0  0
   -8.5688    0.6491    0.0000 C   0  0  0  0  0  0  0  0  0  0  0  0
   -7.3613    2.9082    0.0000 C   0  0  0  0  0  0  0  0  0  0  0  0
    1.6228    1.7007    0.0000 C   0  0  0  0  0  0  0  0  0  0  0  0
    2.3109    3.9728    0.0000 C   0  0  0  0  0  0  0  0  0  0  0  0
   -3.2197    7.8547    0.0000 C   0  0  0  0  0  0  0  0  0  0  0  0
   -9.9969    1.4800    0.0000 C   0  0  0  0  0  0  0  0  0  0  0  0
    2.4278    2.8043    0.0000 C   0  0  0  0  0  0  0  0  0  0  0  0
   -4.1935    9.1920    0.0000 C   0  0  0  0  0  0  0  0  0  0  0  0
  -11.4250    0.8698    0.0000 C   0  0  0  0  0  0  0  0  0  0  0  0
  -12.8532    1.7137    0.0000 C   0  0  0  0  0  0  0  0  0  0  0  0
  -14.2813    1.1035    0.0000 C   0  0  0  0  0  0  0  0  0  0  0  0
  -13.0739    3.3626    0.0000 C   0  0  0  0  0  0  0  0  0  0  0  0
  1  2  2  0
  2  3  1  0
  2  4  1  0
  3  5  1  0
  4  6  1  0
  4  7  2  0
  5  8  1  0
  6  9  1  0
  6 10  1  0
  7 11  1  0
  8 12  2  0
 10 13  2  0
 10 14  1  0
 11 15  1  0
 12 16  1  0
 12 17  1  0
 13 18  1  0
 14 19  2  0
 15 20  1  0
 16 21  1  0
 18 22  2  0
 20 23  1  0
 21 24  1  0
 24 25  2  0
 25 26  1  0
 25 27  1  0
  9 11  2  0
 19 22  1  0
M  END
>  <Structure No>
383

>  <Molecule Name>
[(2E)-3,7-dimethylocta-2,6-dienyl] 2-phenyl-5-propylpyrazole-3-carboxylate

>  <PubChem CID>
52921550

>  <SMILES>
CCCc(cc1C(OC/C=C(\C)/CCC=C(C)C)=O)n[n]1-c1ccccc1

>  <InChIKey>
FQGSPNWOZUYZSH-XDJHFCHBSA-N

>  <Molecular Formula>
C23H30N2O2

>  <Target Organism>
Acyrthosiphon pisum

>  <Reference DOI>
10.1021/jf104712c

>  <Activity Label>
2

>  <Repellency>
Dual Active

>  <IUPAC>


>  <Common name>
[(2E)-3,7-dimethylocta-2,6-dienyl] 2-phenyl-5-propylpyrazole-3-carboxylate

$$$$
Compound 384
     RDKit          2D

 27 28  0  0  0  0  0  0  0  0999 V2000
    0.0000    0.0000    0.0000 O   0  0  0  0  0  0  0  0  0  0  0  0
   -0.5777    1.7056    0.0000 C   0  0  0  0  0  0  0  0  0  0  0  0
    0.2751    2.8748    0.0000 O   0  0  0  0  0  0  0  0  0  0  0  0
   -2.2420    2.4621    0.0000 C   0  0  0  0  0  0  0  0  0  0  0  0
    1.4993    2.5584    0.0000 C   0  0  0  0  0  0  0  0  0  0  0  0
   -3.6588    1.7193    0.0000 N   0  0  0  0  0  0  0  0  0  0  0  0
   -2.9986    4.1265    0.0000 C   0  0  0  0  0  0  0  0  0  0  0  0
    2.3658    3.7276    0.0000 C   0  0  0  0  0  0  0  0  0  0  0  0
   -5.0756    2.7510    0.0000 N   0  0  0  0  0  0  0  0  0  0  0  0
   -3.8789    0.4126    0.0000 C   0  0  0  0  0  0  0  0  0  0  0  0
   -4.7455    4.3466    0.0000 C   0  0  0  0  0  0  0  0  0  0  0  0
    3.5900    3.4112    0.0000 C   0  0  0  0  0  0  0  0  0  0  0  0
   -5.3920   -0.2338    0.0000 C   0  0  0  0  0  0  0  0  0  0  0  0
   -2.8060   -0.2338    0.0000 C   0  0  0  0  0  0  0  0  0  0  0  0
   -5.7771    5.7634    0.0000 C   0  0  0  0  0  0  0  0  0  0  0  0
    4.4566    4.5804    0.0000 C   0  0  0  0  0  0  0  0  0  0  0  0
    3.7276    2.1458    0.0000 C   0  0  0  0  0  0  0  0  0  0  0  0
   -5.6120   -1.5405    0.0000 C   0  0  0  0  0  0  0  0  0  0  0  0
   -3.0261   -1.5405    0.0000 C   0  0  0  0  0  0  0  0  0  0  0  0
   -5.2819    7.3589    0.0000 C   0  0  0  0  0  0  0  0  0  0  0  0
   -7.5103    5.8046    0.0000 C   0  0  0  0  0  0  0  0  0  0  0  0
    5.6808    4.2640    0.0000 C   0  0  0  0  0  0  0  0  0  0  0  0
   -4.5391   -2.1870    0.0000 C   0  0  0  0  0  0  0  0  0  0  0  0
    6.5474    5.4332    0.0000 C   0  0  0  0  0  0  0  0  0  0  0  0
    7.7716    5.1169    0.0000 C   0  0  0  0  0  0  0  0  0  0  0  0
    8.6382    6.2860    0.0000 C   0  0  0  0  0  0  0  0  0  0  0  0
    7.9092    3.8514    0.0000 C   0  0  0  0  0  0  0  0  0  0  0  0
  1  2  2  0
  2  3  1  0
  2  4  1  0
  3  5  1  0
  4  6  1  0
  4  7  2  0
  5  8  1  0
  6  9  1  0
  6 10  1  0
  7 11  1  0
  8 12  2  0
 10 13  2  0
 10 14  1  0
 11 15  1  0
 12 16  1  0
 12 17  1  0
 13 18  1  0
 14 19  2  0
 15 20  1  0
 15 21  1  0
 16 22  1  0
 18 23  2  0
 22 24  1  0
 24 25  2  0
 25 26  1  0
 25 27  1  0
  9 11  2  0
 19 23  1  0
M  END
>  <Structure No>
384

>  <Molecule Name>
[(2E)-3,7-dimethylocta-2,6-dienyl] 2-phenyl-5-propan-2-ylpyrazole-3-carboxylate

>  <PubChem CID>
52920574

>  <SMILES>
CC(C)c(cc1C(OC/C=C(\C)/CCC=C(C)C)=O)n[n]1-c1ccccc1

>  <InChIKey>
NEHHMFTZYFJTKB-XMHGGMMESA-N

>  <Molecular Formula>
C23H30N2O2

>  <Target Organism>
Acyrthosiphon pisum

>  <Reference DOI>
10.1021/jf104712c

>  <Activity Label>
2

>  <Repellency>
Dual Active

>  <IUPAC>


>  <Common name>
[(2E)-3,7-dimethylocta-2,6-dienyl] 2-phenyl-5-propan-2-ylpyrazole-3-carboxylate

$$$$
Compound 385
     RDKit          2D

 28 30  0  0  0  0  0  0  0  0999 V2000
    0.0000    0.0000    0.0000 Cl  0  0  0  0  0  0  0  0  0  0  0  0
   -1.3621    0.7801    0.0000 C   0  0  0  0  0  0  0  0  0  0  0  0
   -1.4364    2.3527    0.0000 Cl  0  0  0  0  0  0  0  0  0  0  0  0
   -2.7242    0.0742    0.0000 C   0  0  0  0  0  0  0  0  0  0  0  0
   -4.0864    0.8668    0.0000 C   0  0  0  0  0  0  0  0  0  0  0  0
   -4.8789    2.2289    0.0000 C   0  0  0  0  0  0  0  0  0  0  0  0
   -5.6590    0.9411    0.0000 C   0  0  0  0  0  0  0  0  0  0  0  0
   -3.6654    3.0214    0.0000 C   0  0  0  0  0  0  0  0  0  0  0  0
   -6.2410    3.0214    0.0000 C   0  0  0  0  0  0  0  0  0  0  0  0
   -7.0212    0.2352    0.0000 C   0  0  0  0  0  0  0  0  0  0  0  0
   -8.3833    1.0277    0.0000 O   0  0  0  0  0  0  0  0  0  0  0  0
   -7.0955   -1.1887    0.0000 O   0  0  0  0  0  0  0  0  0  0  0  0
   -8.4576   -1.8946    0.0000 C   0  0  0  0  0  0  0  0  0  0  0  0
   -9.8198   -1.1020    0.0000 C   0  0  0  0  0  0  0  0  0  0  0  0
   -8.5319   -3.3186    0.0000 C   0  0  0  0  0  0  0  0  0  0  0  0
  -11.1819   -0.3095    0.0000 N   0  0  0  0  0  0  0  0  0  0  0  0
   -9.8941   -4.0245    0.0000 C   0  0  0  0  0  0  0  0  0  0  0  0
   -7.3184   -4.0245    0.0000 C   0  0  0  0  0  0  0  0  0  0  0  0
   -9.9684   -5.4485    0.0000 C   0  0  0  0  0  0  0  0  0  0  0  0
   -7.3927   -5.4485    0.0000 C   0  0  0  0  0  0  0  0  0  0  0  0
  -11.3305   -6.1544    0.0000 O   0  0  0  0  0  0  0  0  0  0  0  0
   -8.7548   -6.1544    0.0000 C   0  0  0  0  0  0  0  0  0  0  0  0
  -11.4048   -7.5784    0.0000 C   0  0  0  0  0  0  0  0  0  0  0  0
  -12.7670   -8.2843    0.0000 C   0  0  0  0  0  0  0  0  0  0  0  0
  -10.1913   -8.2843    0.0000 C   0  0  0  0  0  0  0  0  0  0  0  0
  -12.8413   -9.7083    0.0000 C   0  0  0  0  0  0  0  0  0  0  0  0
  -10.2656   -9.7083    0.0000 C   0  0  0  0  0  0  0  0  0  0  0  0
  -11.6277  -10.4142    0.0000 C   0  0  0  0  0  0  0  0  0  0  0  0
  1  2  1  0
  2  3  1  0
  2  4  2  0
  4  5  1  0
  5  6  1  0
  5  7  1  0
  6  8  1  0
  6  9  1  0
  7 10  1  0
 10 11  2  0
 10 12  1  0
 12 13  1  0
 13 14  1  0
 13 15  1  0
 14 16  3  0
 15 17  2  0
 15 18  1  0
 17 19  1  0
 18 20  2  0
 19 21  1  0
 19 22  2  0
 21 23  1  0
 23 24  2  0
 23 25  1  0
 24 26  1  0
 25 27  2  0
 26 28  2  0
  6  7  1  0
 20 22  1  0
 27 28  1  0
M  END
>  <Structure No>
385

>  <Molecule Name>
Cypermethrin

>  <PubChem CID>
2912

>  <SMILES>
CC(C)(C1C=C(Cl)Cl)C1C(OC(c1cc(Oc2ccccc2)ccc1)C#N)=O

>  <InChIKey>
KAATUXNTWXVJKI-UHFFFAOYSA-N

>  <Molecular Formula>
C22H19NO3Cl2

>  <Target Organism>
Simulium spp.

>  <Reference DOI>
10.1002/ps.2780120407

>  <Activity Label>
2

>  <Repellency>
Dual Active

>  <IUPAC>
[cyano-(3-phenoxyphenyl)methyl] 3-(2,2-dichloroethenyl)-2,2-dimethylcyclopropane-1-carboxylate

>  <Common name>
Cypermethrin

$$$$
Compound 386
     RDKit          2D

 28 29  0  0  0  0  0  0  0  0999 V2000
    0.0000    0.0000    0.0000 O   0  0  0  0  0  0  0  0  0  0  0  0
    0.5152   -1.1931    0.0000 C   0  0  0  0  0  0  0  0  0  0  0  0
    1.8439   -1.1795    0.0000 O   0  0  0  0  0  0  0  0  0  0  0  0
   -0.5016   -2.2100    0.0000 C   0  0  0  0  0  0  0  0  0  0  0  0
    2.5896    0.2169    0.0000 C   0  0  0  0  0  0  0  0  0  0  0  0
   -2.2235   -2.0202    0.0000 N   0  0  0  0  0  0  0  0  0  0  0  0
   -0.1627   -3.4709    0.0000 C   0  0  0  0  0  0  0  0  0  0  0  0
    3.9183    0.2304    0.0000 C   0  0  0  0  0  0  0  0  0  0  0  0
   -2.9421   -3.2811    0.0000 N   0  0  0  0  0  0  0  0  0  0  0  0
   -3.2404   -0.6236    0.0000 C   0  0  0  0  0  0  0  0  0  0  0  0
   -1.5592   -4.2302    0.0000 C   0  0  0  0  0  0  0  0  0  0  0  0
    4.6776    1.6270    0.0000 C   0  0  0  0  0  0  0  0  0  0  0  0
   -4.2573    0.7728    0.0000 C   0  0  0  0  0  0  0  0  0  0  0  0
   -4.6369   -1.3829    0.0000 C   0  0  0  0  0  0  0  0  0  0  0  0
   -2.2235    0.3931    0.0000 C   0  0  0  0  0  0  0  0  0  0  0  0
   -1.7490   -5.5725    0.0000 C   0  0  0  0  0  0  0  0  0  0  0  0
    6.0063    1.6405    0.0000 C   0  0  0  0  0  0  0  0  0  0  0  0
    3.8234    3.1997    0.0000 C   0  0  0  0  0  0  0  0  0  0  0  0
   -3.2404   -6.2504    0.0000 C   0  0  0  0  0  0  0  0  0  0  0  0
   -0.6372   -6.2504    0.0000 C   0  0  0  0  0  0  0  0  0  0  0  0
    6.7521    3.0370    0.0000 C   0  0  0  0  0  0  0  0  0  0  0  0
   -3.4302   -7.5927    0.0000 C   0  0  0  0  0  0  0  0  0  0  0  0
   -0.8270   -7.5927    0.0000 C   0  0  0  0  0  0  0  0  0  0  0  0
    8.0808    3.0506    0.0000 C   0  0  0  0  0  0  0  0  0  0  0  0
   -2.3184   -8.2706    0.0000 C   0  0  0  0  0  0  0  0  0  0  0  0
    8.8401    4.4471    0.0000 C   0  0  0  0  0  0  0  0  0  0  0  0
   10.1688    4.4607    0.0000 C   0  0  0  0  0  0  0  0  0  0  0  0
    7.9723    6.0199    0.0000 C   0  0  0  0  0  0  0  0  0  0  0  0
  1  2  2  0
  2  3  1  0
  2  4  1  0
  3  5  1  0
  4  6  1  0
  4  7  2  0
  5  8  1  0
  6  9  1  0
  6 10  1  0
  7 11  1  0
  8 12  2  0
 10 13  1  0
 10 14  1  0
 10 15  1  0
 11 16  1  0
 12 17  1  0
 12 18  1  0
 16 19  2  0
 16 20  1  0
 17 21  1  0
 19 22  1  0
 20 23  2  0
 21 24  1  0
 22 25  2  0
 24 26  2  0
 26 27  1  0
 26 28  1  0
  9 11  2  0
 23 25  1  0
M  END
>  <Structure No>
386

>  <Molecule Name>
[(2E)-3,7-dimethylocta-2,6-dienyl] 2-tert-butyl-5-phenylpyrazole-3-carboxylate

>  <PubChem CID>
52920576

>  <SMILES>
CC(C)(C)[n](c(C(OC/C=C(\C)/CCC=C(C)C)=O)c1)nc1-c1ccccc1

>  <InChIKey>
HRQYCIIBJOQVMJ-XDJHFCHBSA-N

>  <Molecular Formula>
C24H32N2O2

>  <Target Organism>
Acyrthosiphon pisum

>  <Reference DOI>
10.1021/jf104712c

>  <Activity Label>
2

>  <Repellency>
Dual Active

>  <IUPAC>


>  <Common name>
[(2E)-3,7-dimethylocta-2,6-dienyl] 2-tert-butyl-5-phenylpyrazole-3-carboxylate

$$$$
Compound 387
     RDKit          2D

 30 32  0  0  0  0  0  0  0  0999 V2000
    0.0000    0.0000    0.0000 O   0  0  0  0  0  0  0  0  0  0  0  0
   -0.4794    1.6067    0.0000 C   0  0  0  0  0  0  0  0  0  0  0  0
    0.4535    2.7081    0.0000 O   0  0  0  0  0  0  0  0  0  0  0  0
   -2.0473    2.2546    0.0000 C   0  0  0  0  0  0  0  0  0  0  0  0
    1.7363    2.3453    0.0000 C   0  0  0  0  0  0  0  0  0  0  0  0
   -3.3819    1.5030    0.0000 N   0  0  0  0  0  0  0  0  0  0  0  0
   -2.6951    3.8225    0.0000 C   0  0  0  0  0  0  0  0  0  0  0  0
    2.6692    3.4467    0.0000 C   0  0  0  0  0  0  0  0  0  0  0  0
   -4.7165    2.4749    0.0000 N   0  0  0  0  0  0  0  0  0  0  0  0
   -3.5244    0.1425    0.0000 C   0  0  0  0  0  0  0  0  0  0  0  0
   -4.3408    3.9650    0.0000 C   0  0  0  0  0  0  0  0  0  0  0  0
    3.9520    3.0839    0.0000 C   0  0  0  0  0  0  0  0  0  0  0  0
   -4.9498   -0.5442    0.0000 C   0  0  0  0  0  0  0  0  0  0  0  0
   -2.3842   -0.5442    0.0000 C   0  0  0  0  0  0  0  0  0  0  0  0
   -5.3126    5.2996    0.0000 C   0  0  0  0  0  0  0  0  0  0  0  0
    4.8850    4.1853    0.0000 C   0  0  0  0  0  0  0  0  0  0  0  0
    4.1464    1.7622    0.0000 C   0  0  0  0  0  0  0  0  0  0  0  0
   -5.0923   -1.9047    0.0000 C   0  0  0  0  0  0  0  0  0  0  0  0
   -2.5267   -1.9047    0.0000 C   0  0  0  0  0  0  0  0  0  0  0  0
   -6.9453    5.2737    0.0000 C   0  0  0  0  0  0  0  0  0  0  0  0
   -4.7813    6.8027    0.0000 C   0  0  0  0  0  0  0  0  0  0  0  0
    6.1678    3.8225    0.0000 C   0  0  0  0  0  0  0  0  0  0  0  0
   -3.9520   -2.5915    0.0000 C   0  0  0  0  0  0  0  0  0  0  0  0
   -7.9171    6.6084    0.0000 C   0  0  0  0  0  0  0  0  0  0  0  0
   -5.7532    8.1374    0.0000 C   0  0  0  0  0  0  0  0  0  0  0  0
    7.1008    4.9239    0.0000 C   0  0  0  0  0  0  0  0  0  0  0  0
   -7.3858    8.1114    0.0000 C   0  0  0  0  0  0  0  0  0  0  0  0
    8.3836    4.5610    0.0000 C   0  0  0  0  0  0  0  0  0  0  0  0
    9.3165    5.6624    0.0000 C   0  0  0  0  0  0  0  0  0  0  0  0
    8.5779    3.2394    0.0000 C   0  0  0  0  0  0  0  0  0  0  0  0
  1  2  2  0
  2  3  1  0
  2  4  1  0
  3  5  1  0
  4  6  1  0
  4  7  2  0
  5  8  1  0
  6  9  1  0
  6 10  1  0
  7 11  1  0
  8 12  2  0
 10 13  2  0
 10 14  1  0
 11 15  1  0
 12 16  1  0
 12 17  1  0
 13 18  1  0
 14 19  2  0
 15 20  2  0
 15 21  1  0
 16 22  1  0
 18 23  2  0
 20 24  1  0
 21 25  2  0
 22 26  1  0
 24 27  2  0
 26 28  2  0
 28 29  1  0
 28 30  1  0
  9 11  2  0
 19 23  1  0
 25 27  1  0
M  END
>  <Structure No>
387

>  <Molecule Name>
[(2E)-3,7-dimethylocta-2,6-dienyl] 2,5-diphenylpyrazole-3-carboxylate

>  <PubChem CID>
52920577

>  <SMILES>
CC(C)=CCC/C(\C)=C/COC(c1cc(-c2ccccc2)n[n]1-c1ccccc1)=O

>  <InChIKey>
CUSYZGZRDAJYFS-HEHNFIMWSA-N

>  <Molecular Formula>
C26H28N2O2

>  <Target Organism>
Acyrthosiphon pisum

>  <Reference DOI>
10.1021/jf104712c

>  <Activity Label>
2

>  <Repellency>
Dual Active

>  <IUPAC>


>  <Common name>
[(2E)-3,7-dimethylocta-2,6-dienyl] 2,5-diphenylpyrazole-3-carboxylate

$$$$
Compound 388
     RDKit          2D

 30 31  0  0  0  0  0  0  0  0999 V2000
    0.0000    0.0000    0.0000 O   0  0  0  0  0  0  0  0  0  0  0  0
   -1.4758    0.8452    0.0000 N   0  0  0  0  0  0  0  0  0  0  0  0
   -2.9517    0.1878    0.0000 O   0  0  0  0  0  0  0  0  0  0  0  0
   -1.6771    2.5492    0.0000 C   0  0  0  0  0  0  0  0  0  0  0  0
   -3.1530    3.4079    0.0000 C   0  0  0  0  0  0  0  0  0  0  0  0
   -0.6037    3.4079    0.0000 C   0  0  0  0  0  0  0  0  0  0  0  0
   -3.3542    5.1118    0.0000 C   0  0  0  0  0  0  0  0  0  0  0  0
   -0.8050    5.1118    0.0000 C   0  0  0  0  0  0  0  0  0  0  0  0
   -2.2808    5.9705    0.0000 C   0  0  0  0  0  0  0  0  0  0  0  0
   -2.4821    7.6745    0.0000 N   0  0  0  0  0  0  0  0  0  0  0  0
   -3.8641    8.6808    0.0000 N   0  0  0  0  0  0  0  0  0  0  0  0
   -1.5027    8.6808    0.0000 C   0  0  0  0  0  0  0  0  0  0  0  0
   -3.5420   10.3042    0.0000 C   0  0  0  0  0  0  0  0  0  0  0  0
   -0.2817    8.3588    0.0000 C   0  0  0  0  0  0  0  0  0  0  0  0
   -2.2272   10.3042    0.0000 C   0  0  0  0  0  0  0  0  0  0  0  0
   -4.5483   11.6862    0.0000 C   0  0  0  0  0  0  0  0  0  0  0  0
   -0.1341    7.0976    0.0000 O   0  0  0  0  0  0  0  0  0  0  0  0
    0.5769    9.4992    0.0000 O   0  0  0  0  0  0  0  0  0  0  0  0
   -4.0519   13.2426    0.0000 C   0  0  0  0  0  0  0  0  0  0  0  0
   -6.2389   11.7130    0.0000 C   0  0  0  0  0  0  0  0  0  0  0  0
    1.7978    9.1772    0.0000 C   0  0  0  0  0  0  0  0  0  0  0  0
    2.6565   10.3176    0.0000 C   0  0  0  0  0  0  0  0  0  0  0  0
    3.8775    9.9956    0.0000 C   0  0  0  0  0  0  0  0  0  0  0  0
    4.7362   11.1361    0.0000 C   0  0  0  0  0  0  0  0  0  0  0  0
    4.0251    8.7344    0.0000 C   0  0  0  0  0  0  0  0  0  0  0  0
    5.9571   10.8141    0.0000 C   0  0  0  0  0  0  0  0  0  0  0  0
    6.8158   11.9545    0.0000 C   0  0  0  0  0  0  0  0  0  0  0  0
    8.0367   11.6325    0.0000 C   0  0  0  0  0  0  0  0  0  0  0  0
    8.8954   12.7730    0.0000 C   0  0  0  0  0  0  0  0  0  0  0  0
    8.1843   10.3713    0.0000 C   0  0  0  0  0  0  0  0  0  0  0  0
  1  2  2  0
  2  3  1  0
  2  4  1  0
  4  5  2  0
  4  6  1  0
  5  7  1  0
  6  8  2  0
  7  9  2  0
  9 10  1  0
 10 11  1  0
 10 12  1  0
 11 13  2  0
 12 14  1  0
 12 15  2  0
 13 16  1  0
 14 17  2  0
 14 18  1  0
 16 19  1  0
 16 20  1  0
 18 21  1  0
 21 22  1  0
 22 23  2  0
 23 24  1  0
 23 25  1  0
 24 26  1  0
 26 27  1  0
 27 28  2  0
 28 29  1  0
 28 30  1  0
  8  9  1  0
 13 15  1  0
M  CHG  2   2   1   3  -1
M  END
>  <Structure No>
388

>  <Molecule Name>
[(2E)-3,7-dimethylocta-2,6-dienyl] 2-(4-nitrophenyl)-5-propan-2-ylpyrazole-3-carboxylate

>  <PubChem CID>
52920575

>  <SMILES>
CC(C)c(cc1C(OC/C=C(\C)/CCC=C(C)C)=O)n[n]1-c(cc1)ccc1[N+]([O-])=O

>  <InChIKey>
CHSUSWDWCXKNKB-QGOAFFKASA-N

>  <Molecular Formula>
C23H29N3O4

>  <Target Organism>
Acyrthosiphon pisum

>  <Reference DOI>
10.1021/jf104712c

>  <Activity Label>
2

>  <Repellency>
Dual Active

>  <IUPAC>


>  <Common name>
[(2E)-3,7-dimethylocta-2,6-dienyl] 2-(4-nitrophenyl)-5-propan-2-ylpyrazole-3-carboxylate

$$$$
Compound 389
     RDKit          2D

 33 35  0  0  0  0  0  0  0  0999 V2000
    0.0000    0.0000    0.0000 O   0  0  0  0  0  0  0  0  0  0  0  0
   -1.4014    0.8026    0.0000 N   0  0  0  0  0  0  0  0  0  0  0  0
   -2.8029    0.1274    0.0000 O   0  0  0  0  0  0  0  0  0  0  0  0
   -1.5288    2.4207    0.0000 C   0  0  0  0  0  0  0  0  0  0  0  0
   -2.9303    3.2234    0.0000 C   0  0  0  0  0  0  0  0  0  0  0  0
   -0.3822    3.2234    0.0000 C   0  0  0  0  0  0  0  0  0  0  0  0
   -3.0577    4.8414    0.0000 C   0  0  0  0  0  0  0  0  0  0  0  0
   -0.5096    4.8414    0.0000 C   0  0  0  0  0  0  0  0  0  0  0  0
   -1.9111    5.6569    0.0000 C   0  0  0  0  0  0  0  0  0  0  0  0
   -2.0385    7.2749    0.0000 N   0  0  0  0  0  0  0  0  0  0  0  0
   -3.3508    8.2305    0.0000 N   0  0  0  0  0  0  0  0  0  0  0  0
   -0.9810    8.2305    0.0000 C   0  0  0  0  0  0  0  0  0  0  0  0
   -2.9813    9.7721    0.0000 C   0  0  0  0  0  0  0  0  0  0  0  0
    0.3057    7.8610    0.0000 C   0  0  0  0  0  0  0  0  0  0  0  0
   -1.6053    9.7721    0.0000 C   0  0  0  0  0  0  0  0  0  0  0  0
   -3.9369   11.0844    0.0000 C   0  0  0  0  0  0  0  0  0  0  0  0
    0.5096    6.5360    0.0000 O   0  0  0  0  0  0  0  0  0  0  0  0
    1.2485    8.9440    0.0000 O   0  0  0  0  0  0  0  0  0  0  0  0
   -3.4017   12.5624    0.0000 C   0  0  0  0  0  0  0  0  0  0  0  0
   -5.5422   11.0462    0.0000 C   0  0  0  0  0  0  0  0  0  0  0  0
    2.5354    8.5745    0.0000 C   0  0  0  0  0  0  0  0  0  0  0  0
   -4.3573   13.8747    0.0000 C   0  0  0  0  0  0  0  0  0  0  0  0
   -6.4977   12.3585    0.0000 C   0  0  0  0  0  0  0  0  0  0  0  0
    3.4782    9.6575    0.0000 C   0  0  0  0  0  0  0  0  0  0  0  0
   -5.9626   13.8364    0.0000 C   0  0  0  0  0  0  0  0  0  0  0  0
    4.7650    9.2880    0.0000 C   0  0  0  0  0  0  0  0  0  0  0  0
    5.7078   10.3709    0.0000 C   0  0  0  0  0  0  0  0  0  0  0  0
    4.9689    7.9629    0.0000 C   0  0  0  0  0  0  0  0  0  0  0  0
    6.9946   10.0015    0.0000 C   0  0  0  0  0  0  0  0  0  0  0  0
    7.9375   11.0844    0.0000 C   0  0  0  0  0  0  0  0  0  0  0  0
    9.2243   10.7149    0.0000 C   0  0  0  0  0  0  0  0  0  0  0  0
   10.1671   11.7979    0.0000 C   0  0  0  0  0  0  0  0  0  0  0  0
    9.4281    9.3899    0.0000 C   0  0  0  0  0  0  0  0  0  0  0  0
  1  2  2  0
  2  3  1  0
  2  4  1  0
  4  5  2  0
  4  6  1  0
  5  7  1  0
  6  8  2  0
  7  9  2  0
  9 10  1  0
 10 11  1  0
 10 12  1  0
 11 13  2  0
 12 14  1  0
 12 15  2  0
 13 16  1  0
 14 17  2  0
 14 18  1  0
 16 19  2  0
 16 20  1  0
 18 21  1  0
 19 22  1  0
 20 23  2  0
 21 24  1  0
 22 25  2  0
 24 26  2  0
 26 27  1  0
 26 28  1  0
 27 29  1  0
 29 30  1  0
 30 31  2  0
 31 32  1  0
 31 33  1  0
  8  9  1  0
 13 15  1  0
 23 25  1  0
M  CHG  2   2   1   3  -1
M  END
>  <Structure No>
389

>  <Molecule Name>
[(2E)-3,7-dimethylocta-2,6-dienyl] 2-(4-nitrophenyl)-5-phenylpyrazole-3-carboxylate

>  <PubChem CID>
52920578

>  <SMILES>
CC(C)=CCC/C(\C)=C/COC(c1cc(-c2ccccc2)n[n]1-c(cc1)ccc1[N+]([O-])=O)=O

>  <InChIKey>
FOZBUHJBPFKESM-CAPFRKAQSA-N

>  <Molecular Formula>
C26H27N3O4

>  <Target Organism>
Acyrthosiphon pisum

>  <Reference DOI>
10.1021/jf104712c

>  <Activity Label>
2

>  <Repellency>
Dual Active

>  <IUPAC>


>  <Common name>
[(2E)-3,7-dimethylocta-2,6-dienyl] 2-(4-nitrophenyl)-5-phenylpyrazole-3-carboxylate

$$$$
Compound 390
     RDKit          2D

 14 15  0  0  0  0  0  0  0  0999 V2000
    0.0000    0.0000    0.0000 O   0  0  0  0  0  0  0  0  0  0  0  0
   -0.4613    1.4314    0.0000 C   0  0  0  0  0  0  0  0  0  0  0  0
    0.4140    2.6381    0.0000 O   0  0  0  0  0  0  0  0  0  0  0  0
   -1.8809    1.8928    0.0000 C   0  0  0  0  0  0  0  0  0  0  0  0
   -0.4613    3.8447    0.0000 C   0  0  0  0  0  0  0  0  0  0  0  0
   -1.8809    3.3952    0.0000 C   0  0  0  0  0  0  0  0  0  0  0  0
   -3.1823    1.1356    0.0000 C   0  0  0  0  0  0  0  0  0  0  0  0
    0.0000    5.2762    0.0000 C   0  0  0  0  0  0  0  0  0  0  0  0
   -3.1823    4.1523    0.0000 C   0  0  0  0  0  0  0  0  0  0  0  0
   -4.4836    1.8928    0.0000 C   0  0  0  0  0  0  0  0  0  0  0  0
    1.4669    5.5838    0.0000 C   0  0  0  0  0  0  0  0  0  0  0  0
   -4.4836    3.3952    0.0000 C   0  0  0  0  0  0  0  0  0  0  0  0
    1.9283    7.0152    0.0000 C   0  0  0  0  0  0  0  0  0  0  0  0
    3.3952    7.3228    0.0000 C   0  0  0  0  0  0  0  0  0  0  0  0
  1  2  2  0
  2  3  1  0
  2  4  1  0
  3  5  1  0
  4  6  2  0
  4  7  1  0
  5  8  2  0
  6  9  1  0
  7 10  2  0
  8 11  1  0
  9 12  2  0
 11 13  1  0
 13 14  1  0
  5  6  1  0
 10 12  1  0
M  END
>  <Structure No>
390

>  <Molecule Name>
(3Z)-3-butylidenephthalide

>  <PubChem CID>
642376

>  <SMILES>
CCC/C=C\1/C2=CC=CC=C2C(=O)O1

>  <InChIKey>
WMBOCUXXNSOQHM-FLIBITNWSA-N

>  <Molecular Formula>
C12H12O2

>  <Target Organism>
Aedes aegypti

>  <Reference DOI>
10.1016/j.actatropica.2024.107386

>  <Activity Label>
1

>  <Repellency>
Active

>  <IUPAC>
(3Z)-3-butylidene-2-benzofuran-1-one

>  <Common name>
(3Z)-3-butylidenephthalide

$$$$
Compound 391
     RDKit          2D

 14 15  0  0  0  0  0  0  0  0999 V2000
    0.0000    0.0000    0.0000 O   0  0  0  0  0  0  0  0  0  0  0  0
   -0.4609    1.4302    0.0000 C   0  0  0  0  0  0  0  0  0  0  0  0
    0.4137    2.6359    0.0000 O   0  0  0  0  0  0  0  0  0  0  0  0
   -1.8794    1.8912    0.0000 C   0  0  0  0  0  0  0  0  0  0  0  0
   -0.4609    3.8416    0.0000 C   0  0  0  0  0  0  0  0  0  0  0  0
   -1.8794    3.3924    0.0000 C   0  0  0  0  0  0  0  0  0  0  0  0
   -3.1797    1.1347    0.0000 C   0  0  0  0  0  0  0  0  0  0  0  0
    0.0000    5.2719    0.0000 C   0  0  0  0  0  0  0  0  0  0  0  0
   -3.1797    4.1489    0.0000 C   0  0  0  0  0  0  0  0  0  0  0  0
   -4.4799    1.8912    0.0000 C   0  0  0  0  0  0  0  0  0  0  0  0
   -1.0047    6.3948    0.0000 C   0  0  0  0  0  0  0  0  0  0  0  0
   -4.4799    3.3924    0.0000 C   0  0  0  0  0  0  0  0  0  0  0  0
   -0.5437    7.8251    0.0000 C   0  0  0  0  0  0  0  0  0  0  0  0
   -1.5484    8.9480    0.0000 C   0  0  0  0  0  0  0  0  0  0  0  0
  1  2  2  0
  2  3  1  0
  2  4  1  0
  3  5  1  0
  4  6  2  0
  4  7  1  0
  5  8  2  0
  6  9  1  0
  7 10  2  0
  8 11  1  0
  9 12  2  0
 11 13  1  0
 13 14  1  0
  5  6  1  0
 10 12  1  0
M  END
>  <Structure No>
391

>  <Molecule Name>
(3E)-3-butylidenephthalide

>  <PubChem CID>
5352899

>  <SMILES>
CCC/C=C/1\C2=CC=CC=C2C(=O)O1

>  <InChIKey>
WMBOCUXXNSOQHM-DHZHZOJOSA-N

>  <Molecular Formula>
C12H12O2

>  <Target Organism>
Aedes aegypti

>  <Reference DOI>
10.1016/j.actatropica.2024.107386

>  <Activity Label>
1

>  <Repellency>
Active

>  <IUPAC>
(3E)-3-butylidene-2-benzofuran-1-one

>  <Common name>
(3E)-3-butylidenephthalide

$$$$
Compound 392
Actelion Java MolfileCreator 2.0

  0  0  0  0  0  0              0 V3000
M  V30 BEGIN CTAB
M  V30 COUNTS 10 10 0 0 0
M  V30 BEGIN ATOM
M  V30 1 O 0.0 0.0 0.0 0
M  V30 2 C -1.3006 -0.7449 0.0 0
M  V30 3 C -1.3006 -2.2466 0.0 0
M  V30 4 C -2.6013 -2.9915 0.0 0
M  V30 5 C -2.6013 -4.4932 0.0 0
M  V30 6 C -3.9019 -5.2381 0.0 0
M  V30 7 C -1.3006 -5.2381 0.0 0
M  V30 8 C -3.9019 -6.7398 0.0 0
M  V30 9 C -1.3006 -6.7398 0.0 0
M  V30 10 C -2.6013 -7.4847 0.0 0
M  V30 END ATOM
M  V30 BEGIN BOND
M  V30 1 1 1 2
M  V30 2 1 2 3
M  V30 3 2 3 4
M  V30 4 1 4 5
M  V30 5 2 5 6
M  V30 6 1 5 7
M  V30 7 1 6 8
M  V30 8 2 7 9
M  V30 9 2 8 10
M  V30 10 1 9 10
M  V30 END BOND
M  V30 END CTAB
M  END
>  <Structure No>
392

>  <Molecule Name>
cinnamyl alcohol

>  <PubChem CID>
5315892

>  <SMILES>
C1=CC=C(C=C1)/C=C/CO

>  <InChIKey>
OOCCDEMITAIZTP-QPJJXVBHSA-N

>  <Molecular Formula>
C9H10O

>  <Target Organism>
Aedes aegypti

>  <Reference DOI>
10.1002/ps.1268

>  <Activity Label>
1

>  <Repellency>
Active

>  <IUPAC>
(E)-3-phenylprop-2-en-1-ol

>  <Common name>
cinnamyl alcohol

$$$$
Compound 393
Actelion Java MolfileCreator 2.0

  0  0  0  0  0  0              0 V3000
M  V30 BEGIN CTAB
M  V30 COUNTS 13 12 0 0 0
M  V30 BEGIN ATOM
M  V30 1 O 0.0 0.0 0.0 0
M  V30 2 C 1.2969 -0.7546 0.0 0
M  V30 3 O 2.5939 0.0 0.0 0
M  V30 4 C 3.8909 -0.7546 0.0 0
M  V30 5 C 5.1878 0.0 0.0 0
M  V30 6 C 6.4848 -0.7546 0.0 0
M  V30 7 C 7.7818 0.0 0.0 0
M  V30 8 C 6.4848 -2.252 0.0 0
M  V30 9 C 9.0787 -0.7546 0.0 0
M  V30 10 C 10.3757 0.0 0.0 0
M  V30 11 C 11.6727 -0.7546 0.0 0
M  V30 12 C 12.9697 0.0 0.0 0
M  V30 13 C 11.6727 -2.252 0.0 0
M  V30 END ATOM
M  V30 BEGIN BOND
M  V30 1 2 1 2
M  V30 2 1 2 3
M  V30 3 1 3 4
M  V30 4 1 4 5
M  V30 5 2 5 6
M  V30 6 1 6 7
M  V30 7 1 6 8
M  V30 8 1 7 9
M  V30 9 1 9 10
M  V30 10 2 10 11
M  V30 11 1 11 12
M  V30 12 1 11 13
M  V30 END BOND
M  V30 END CTAB
M  END
>  <Structure No>
393

>  <Molecule Name>
geranyl formate

>  <PubChem CID>
5282109

>  <SMILES>
CC(=CCC/C(=C/COC=O)/C)C

>  <InChIKey>
FQMZVFJYMPNUCT-YRNVUSSQSA-N

>  <Molecular Formula>
C11H18O2

>  <Target Organism>
Aedes aegypti

>  <Reference DOI>
10.1002/ps.3518

>  <Activity Label>
1

>  <Repellency>
Active

>  <IUPAC>
[(2E)-3,7-dimethylocta-2,6-dienyl] formate

>  <Common name>
geranyl formate

$$$$
Compound 394
Actelion Java MolfileCreator 2.0

  0  0  0  0  0  0              0 V3000
M  V30 BEGIN CTAB
M  V30 COUNTS 30 29 0 0 0
M  V30 BEGIN ATOM
M  V30 1 C 0.0 0.0 0.0 0
M  V30 2 C 1.2991 0.744 0.0 0
M  V30 3 C -1.2991 0.744 0.0 0
M  V30 4 C 0.0 -1.4999 0.0 0
M  V30 5 C 2.5983 -0.0118 0.0 0
M  V30 6 C -2.5983 -0.0118 0.0 0
M  V30 7 C 3.8975 0.7322 0.0 0
M  V30 8 C -3.8975 0.7322 0.0 0
M  V30 9 C 5.1967 -0.0236 0.0 0
M  V30 10 C -5.1967 -0.0236 0.0 0
M  V30 11 C 6.4959 0.7204 0.0 0
M  V30 12 C 5.1967 -1.5235 0.0 0
M  V30 13 C -6.4959 0.7204 0.0 0
M  V30 14 C -5.1967 -1.5235 0.0 0
M  V30 15 C 7.7951 -0.0354 0.0 0
M  V30 16 C 9.0943 0.7086 0.0 0
M  V30 17 C 10.3935 -0.0472 0.0 0
M  V30 18 C 11.6927 0.6968 0.0 0
M  V30 19 C 12.9919 -0.059 0.0 0
M  V30 20 C 11.6927 2.1968 0.0 0
M  V30 21 C 14.2911 0.685 0.0 0
M  V30 22 C 15.5902 -0.0708 0.0 0
M  V30 23 C 16.8894 0.6732 0.0 0
M  V30 24 C 18.1886 -0.0826 0.0 0
M  V30 25 C 16.8894 2.1731 0.0 0
M  V30 26 C 19.4878 0.6614 0.0 0
M  V30 27 C 20.787 -0.0944 0.0 0
M  V30 28 C 22.0862 0.6495 0.0 0
M  V30 29 C 23.3854 -0.1062 0.0 0
M  V30 30 C 22.0862 2.1495 0.0 0
M  V30 END ATOM
M  V30 BEGIN BOND
M  V30 1 2 1 2
M  V30 2 1 1 3
M  V30 3 1 1 4
M  V30 4 1 2 5
M  V30 5 1 3 6
M  V30 6 1 5 7
M  V30 7 1 6 8
M  V30 8 1 7 9
M  V30 9 2 8 10
M  V30 10 2 9 11
M  V30 11 1 9 12
M  V30 12 1 10 13
M  V30 13 1 10 14
M  V30 14 1 11 15
M  V30 15 1 15 16
M  V30 16 1 16 17
M  V30 17 2 17 18
M  V30 18 1 18 19
M  V30 19 1 18 20
M  V30 20 1 19 21
M  V30 21 1 21 22
M  V30 22 2 22 23
M  V30 23 1 23 24
M  V30 24 1 23 25
M  V30 25 1 24 26
M  V30 26 1 26 27
M  V30 27 2 27 28
M  V30 28 1 28 29
M  V30 29 1 28 30
M  V30 END BOND
M  V30 END CTAB
M  END
>  <Structure No>
394

>  <Molecule Name>
squalene

>  <PubChem CID>
638072

>  <SMILES>
CC(=CCC/C(=C/CC/C(=C/CC/C=C(/CC/C=C(/CCC=C(C)C)\C)\C)/C)/C)C

>  <InChIKey>
YYGNTYWPHWGJRM-AAJYLUCBSA-N

>  <Molecular Formula>
C30H50

>  <Target Organism>
Aedes aegypti

>  <Reference DOI>
10.1002/ps.5769

>  <Activity Label>
1

>  <Repellency>
Active

>  <IUPAC>
(6E,10E,14E,18E)-2,6,10,15,19,23-hexamethyltetracosa-2,6,10,14,18,22-hexaene

>  <Common name>
squalene

$$$$
Compound 395
Actelion Java MolfileCreator 2.0

  0  0  0  0  0  0              0 V3000
M  V30 BEGIN CTAB
M  V30 COUNTS 33 37 0 0 0
M  V30 BEGIN ATOM
M  V30 1 O 0.0 0.0 0.0 0
M  V30 2 C -0.0123 1.45 0.0 0
M  V30 3 O 1.2393 2.1812 0.0 0
M  V30 4 C -1.2765 2.1688 0.0 0 CFG=2
M  V30 5 C -2.5902 2.9124 0.0 0 CFG=2
M  V30 6 C -1.2765 0.6568 0.0 0
M  V30 7 C 0.0867 2.9496 0.0 0
M  V30 8 C -3.8915 2.1316 0.0 0
M  V30 9 C -2.6273 4.4864 0.0 0 CFG=2
M  V30 10 C -2.5902 -0.0867 0.0 0
M  V30 11 C 0.0867 4.5235 0.0 0
M  V30 12 C -5.1432 2.8628 0.0 0
M  V30 13 C -3.8915 0.6816 0.0 0 CFG=1
M  V30 14 C -1.2765 5.2919 0.0 0 CFG=1
M  V30 15 C -3.8915 5.1928 0.0 0
M  V30 16 C -6.3949 2.1316 0.0 0
M  V30 17 C -5.1432 -0.0495 0.0 0 CFG=1
M  V30 18 C -3.3957 -0.6816 0.0 0
M  V30 19 C -1.2889 6.742 0.0 0
M  V30 20 C -6.3949 0.6816 0.0 0 CFG=1
M  V30 21 C -5.1184 -1.5615 0.0 0
M  V30 22 C -4.2137 -1.1649 0.0 0
M  V30 23 C -7.721 -0.0495 0.0 0 CFG=2
M  V30 24 C -6.4197 -2.3299 0.0 0
M  V30 25 C -7.7334 -1.5615 0.0 0 CFG=1
M  V30 26 C -9.0595 0.7683 0.0 0
M  V30 27 C -7.7086 1.4004 0.0 0
M  V30 28 C -9.0843 -2.3547 0.0 0
M  V30 29 C -10.4352 0.0 0.0 0
M  V30 30 C -10.4476 -1.5615 0.0 0 CFG=2
M  V30 31 C -9.8031 -3.6188 0.0 0
M  V30 32 C -8.3531 -3.6064 0.0 0
M  V30 33 O -11.7117 -2.2803 0.0 0
M  V30 END ATOM
M  V30 BEGIN BOND
M  V30 1 2 1 2
M  V30 2 1 2 3
M  V30 3 1 4 2 CFG=1
M  V30 4 1 4 5
M  V30 5 1 4 6
M  V30 6 1 4 7
M  V30 7 1 5 8 CFG=3
M  V30 8 1 5 9
M  V30 9 1 6 10
M  V30 10 1 7 11
M  V30 11 2 8 12
M  V30 12 1 8 13
M  V30 13 1 9 14
M  V30 14 1 9 15 CFG=1
M  V30 15 1 12 16
M  V30 16 1 13 17
M  V30 17 1 13 18 CFG=3
M  V30 18 1 14 19 CFG=3
M  V30 19 1 20 16 CFG=1
M  V30 20 1 17 21
M  V30 21 1 17 22 CFG=1
M  V30 22 1 20 23
M  V30 23 1 21 24
M  V30 24 1 23 25
M  V30 25 1 23 26
M  V30 26 1 23 27 CFG=1
M  V30 27 1 25 28
M  V30 28 1 26 29
M  V30 29 1 28 30
M  V30 30 1 28 31
M  V30 31 1 28 32
M  V30 32 1 30 33 CFG=1
M  V30 33 1 10 13
M  V30 34 1 11 14
M  V30 35 1 17 20
M  V30 36 1 25 24 CFG=1
M  V30 37 1 29 30
M  V30 END BOND
M  V30 BEGIN COLLECTION
M  V30 MDLV30/STEABS ATOMS=(10 4 5 9 13 14 17 20 23 25 30)
M  V30 END COLLECTION
M  V30 END CTAB
M  END
>  <Structure No>
395

>  <Molecule Name>
ursolic acid

>  <PubChem CID>
64945

>  <SMILES>
C[C@@H]1CC[C@@]2(CC[C@@]3(C(=CC[C@H]4[C@]3(CC[C@@H]5[C@@]4(CC[C@@H](C5(C)C)O)C)C)[C@@H]2[C@H]1C)C)C(=O)O

>  <InChIKey>
WCGUUGGRBIKTOS-GPOJBZKASA-N

>  <Molecular Formula>
C30H48O3

>  <Target Organism>
Aedes aegypti

>  <Reference DOI>
10.1002/ps.5769

>  <Activity Label>
1

>  <Repellency>
Active

>  <IUPAC>
(1S,2R,4aS,6aR,6aS,6bR,8aR,10S,12aR,14bS)-10-hydroxy-1,2,6a,6b,9,9,12a-heptamethyl-2,3,4,5,6,6a,7,8,8a,10,11,12,13,14b-tetradecahydro-1H-picene-4a-carboxylic acid

>  <Common name>
ursolic acid

$$$$
Compound 396
Actelion Java MolfileCreator 2.0

  0  0  0  0  0  0              0 V3000
M  V30 BEGIN CTAB
M  V30 COUNTS 33 37 0 0 0
M  V30 BEGIN ATOM
M  V30 1 O 0.0 0.0 0.0 0
M  V30 2 C 1.2727 0.7237 0.0 0
M  V30 3 C 2.6452 -0.0748 0.0 0
M  V30 4 C 1.2852 2.3083 0.0 0
M  V30 5 C 4.0053 0.7237 0.0 0 CFG=1
M  V30 6 C 1.9215 -1.3475 0.0 0
M  V30 7 C 3.3814 -1.3351 0.0 0
M  V30 8 C 2.6702 3.082 0.0 0
M  V30 9 C 4.0178 2.2459 0.0 0 CFG=2
M  V30 10 C 5.328 -0.0374 0.0 0
M  V30 11 C 5.3529 2.9821 0.0 0 CFG=2
M  V30 12 C 4.0303 3.7058 0.0 0
M  V30 13 C 6.6381 0.7361 0.0 0
M  V30 14 C 6.6132 2.2459 0.0 0 CFG=1
M  V30 15 C 5.3529 4.442 0.0 0
M  V30 16 C 7.8734 2.9821 0.0 0 CFG=1
M  V30 17 C 7.549 1.1229 0.0 0
M  V30 18 C 6.6132 5.1782 0.0 0
M  V30 19 C 7.8734 4.442 0.0 0 CFG=2
M  V30 20 C 9.1836 2.196 0.0 0
M  V30 21 C 8.3725 1.6096 0.0 0
M  V30 22 C 9.1836 5.2281 0.0 0 CFG=2
M  V30 23 C 10.5062 2.9447 0.0 0
M  V30 24 C 10.5062 4.4795 0.0 0 CFG=2
M  V30 25 C 9.4955 6.713 0.0 0 CFG=2
M  V30 26 C 11.779 3.7558 0.0 0
M  V30 27 C 11.6167 5.5026 0.0 0
M  V30 28 C 8.5098 7.7986 0.0 0
M  V30 29 C 10.9929 6.8752 0.0 0
M  V30 30 O 11.7914 2.2959 0.0 0
M  V30 31 O 13.0392 4.4919 0.0 0
M  V30 32 C 7.0873 7.4866 0.0 0
M  V30 33 C 8.959 9.1961 0.0 0
M  V30 END ATOM
M  V30 BEGIN BOND
M  V30 1 2 1 2
M  V30 2 1 2 3
M  V30 3 1 2 4
M  V30 4 1 3 5
M  V30 5 1 3 6
M  V30 6 1 3 7
M  V30 7 1 4 8
M  V30 8 1 5 9
M  V30 9 1 5 10 CFG=1
M  V30 10 1 9 11
M  V30 11 1 9 12 CFG=1
M  V30 12 1 10 13
M  V30 13 1 11 14
M  V30 14 1 11 15 CFG=1
M  V30 15 1 14 16
M  V30 16 1 14 17 CFG=1
M  V30 17 1 15 18
M  V30 18 1 16 19
M  V30 19 1 16 20
M  V30 20 1 16 21 CFG=3
M  V30 21 1 22 19 CFG=1
M  V30 22 1 20 23
M  V30 23 1 22 24
M  V30 24 1 22 25
M  V30 25 1 24 26 CFG=1
M  V30 26 1 24 27
M  V30 27 1 25 28 CFG=3
M  V30 28 1 25 29
M  V30 29 2 26 30
M  V30 30 1 26 31
M  V30 31 2 28 32
M  V30 32 1 28 33
M  V30 33 1 8 9
M  V30 34 1 13 14
M  V30 35 1 19 18 CFG=3
M  V30 36 1 23 24
M  V30 37 1 27 29
M  V30 END BOND
M  V30 BEGIN COLLECTION
M  V30 MDLV30/STEABS ATOMS=(9 5 9 11 14 16 19 22 24 25)
M  V30 END COLLECTION
M  V30 END CTAB
M  END
>  <Structure No>
396

>  <Molecule Name>
betulonic acid

>  <PubChem CID>
122844

>  <SMILES>
CC(=C)[C@@H]1CC[C@]2([C@H]1[C@H]3CC[C@@H]4[C@]5(CCC(=O)C([C@@H]5CC[C@]4([C@@]3(CC2)C)C)(C)C)C)C(=O)O

>  <InChIKey>
SLJTWDNVZKIDAU-SVAFSPIFSA-N

>  <Molecular Formula>
C30H46O3

>  <Target Organism>
Aedes aegypti

>  <Reference DOI>
10.1002/ps.5769

>  <Activity Label>
1

>  <Repellency>
Active

>  <IUPAC>
(1R,3aS,5aR,5bR,7aR,11aR,11bR,13aR,13bR)-5a,5b,8,8,11a-pentamethyl-9-oxo-1-prop-1-en-2-yl-2,3,4,5,6,7,7a,10,11,11b,12,13,13a,13b-tetradecahydro-1H-cyclopenta[a]chrysene-3a-carboxylic acid

>  <Common name>
betulonic acid

$$$$
Compound 397
Actelion Java MolfileCreator 2.0

  0  0  0  0  0  0              0 V3000
M  V30 BEGIN CTAB
M  V30 COUNTS 33 37 0 0 0
M  V30 BEGIN ATOM
M  V30 1 O 0.0 0.0 0.0 0
M  V30 2 C 1.2863 0.7314 0.0 0
M  V30 3 C 2.6736 -0.063 0.0 0
M  V30 4 C 1.299 2.3331 0.0 0
M  V30 5 C 4.0483 0.744 0.0 0 CFG=1
M  V30 6 C 1.9421 -1.3494 0.0 0
M  V30 7 C 3.4177 -1.3368 0.0 0
M  V30 8 C 2.6988 3.115 0.0 0
M  V30 9 C 4.0609 2.2827 0.0 0 CFG=2
M  V30 10 C 5.3851 -0.0252 0.0 0
M  V30 11 C 5.4104 3.0268 0.0 0 CFG=2
M  V30 12 C 4.0735 3.7582 0.0 0
M  V30 13 C 6.7094 0.7567 0.0 0
M  V30 14 C 6.6841 2.2827 0.0 0 CFG=1
M  V30 15 C 5.4104 4.5023 0.0 0
M  V30 16 C 7.9579 3.0268 0.0 0 CFG=1
M  V30 17 C 7.63 1.1476 0.0 0
M  V30 18 C 6.6841 5.2464 0.0 0
M  V30 19 C 7.9579 4.5023 0.0 0 CFG=2
M  V30 20 C 9.3578 2.5727 0.0 0
M  V30 21 C 8.4624 1.6395 0.0 0
M  V30 22 C 9.3578 4.9563 0.0 0 CFG=2
M  V30 23 C 10.2154 3.7582 0.0 0
M  V30 24 C 9.8118 6.3562 0.0 0 CFG=1
M  V30 25 O 10.682 7.5543 0.0 0
M  V30 26 C 8.4119 6.8103 0.0 0
M  V30 27 C 11.0099 5.486 0.0 0
M  V30 28 C 9.8118 8.7525 0.0 0 CFG=1
M  V30 29 C 8.4119 8.2858 0.0 0
M  V30 30 C 10.2659 10.1524 0.0 0
M  V30 31 O 10.7199 11.5522 0.0 0
M  V30 32 C 8.866 10.6064 0.0 0
M  V30 33 C 11.6658 9.6983 0.0 0
M  V30 END ATOM
M  V30 BEGIN BOND
M  V30 1 2 1 2
M  V30 2 1 2 3
M  V30 3 1 2 4
M  V30 4 1 3 5
M  V30 5 1 3 6
M  V30 6 1 3 7
M  V30 7 1 4 8
M  V30 8 1 5 9
M  V30 9 1 5 10 CFG=1
M  V30 10 1 9 11
M  V30 11 1 9 12 CFG=1
M  V30 12 1 10 13
M  V30 13 1 11 14
M  V30 14 1 11 15 CFG=1
M  V30 15 1 14 16
M  V30 16 1 14 17 CFG=1
M  V30 17 1 15 18
M  V30 18 1 16 19
M  V30 19 1 16 20
M  V30 20 1 16 21 CFG=3
M  V30 21 1 19 22
M  V30 22 1 20 23
M  V30 23 1 22 24
M  V30 24 1 24 25
M  V30 25 1 24 26
M  V30 26 1 24 27 CFG=1
M  V30 27 1 25 28
M  V30 28 1 26 29
M  V30 29 1 28 30 CFG=1
M  V30 30 1 30 31
M  V30 31 1 30 32
M  V30 32 1 30 33
M  V30 33 1 8 9
M  V30 34 1 13 14
M  V30 35 1 19 18 CFG=3
M  V30 36 1 22 23 CFG=1
M  V30 37 1 28 29
M  V30 END BOND
M  V30 BEGIN COLLECTION
M  V30 MDLV30/STEABS ATOMS=(9 5 9 11 14 16 19 22 24 28)
M  V30 END COLLECTION
M  V30 END CTAB
M  END
>  <Structure No>
397

>  <Molecule Name>
cabraleone

>  <PubChem CID>
21625900

>  <SMILES>
C[C@@]12CC[C@@H]([C@H]1CC[C@H]3[C@]2(CC[C@@H]4[C@@]3(CCC(=O)C4(C)C)C)C)[C@@]5(CC[C@H](O5)C(C)(C)O)C

>  <InChIKey>
XSQYWMLMQVUWSF-FXFLHSNUSA-N

>  <Molecular Formula>
C30H50O3

>  <Target Organism>
Aedes aegypti

>  <Reference DOI>
10.1002/ps.5769

>  <Activity Label>
1

>  <Repellency>
Active

>  <IUPAC>
(5R,8R,9R,10R,13R,14R,17S)-17-[(2S,5S)-5-(2-hydroxypropan-2-yl)-2-methyloxolan-2-yl]-4,4,8,10,14-pentamethyl-1,2,5,6,7,9,11,12,13,15,16,17-dodecahydrocyclopenta[a]phenanthren-3-one

>  <Common name>
cabraleone

$$$$
Compound 398
Actelion Java MolfileCreator 2.0

  0  0  0  0  0  0              0 V3000
M  V30 BEGIN CTAB
M  V30 COUNTS 36 40 0 0 0
M  V30 BEGIN ATOM
M  V30 1 O 0.0 0.0 0.0 0
M  V30 2 C -0.0124 1.4535 0.0 0
M  V30 3 O 1.2423 2.1865 0.0 0
M  V30 4 C -1.2796 2.1741 0.0 0 CFG=2
M  V30 5 C -2.5965 2.9195 0.0 0 CFG=2
M  V30 6 C -1.2796 0.6584 0.0 0
M  V30 7 C 0.0869 2.9568 0.0 0
M  V30 8 C -3.901 2.1368 0.0 0
M  V30 9 C -2.6338 4.4973 0.0 0 CFG=2
M  V30 10 C -2.5965 -0.0869 0.0 0
M  V30 11 C 0.0869 4.5346 0.0 0
M  V30 12 C -5.1558 2.8698 0.0 0
M  V30 13 C -3.901 0.6833 0.0 0 CFG=1
M  V30 14 C -1.2796 5.3048 0.0 0 CFG=1
M  V30 15 C -3.901 5.2055 0.0 0
M  V30 16 C -6.4106 2.1368 0.0 0
M  V30 17 C -5.1558 -0.0496 0.0 0 CFG=1
M  V30 18 C -3.404 -0.6833 0.0 0
M  V30 19 C -1.292 6.7584 0.0 0
M  V30 20 C -6.4106 0.6833 0.0 0 CFG=1
M  V30 21 C -5.1309 -1.5653 0.0 0
M  V30 22 C -4.224 -1.1678 0.0 0
M  V30 23 C -7.7399 -0.0496 0.0 0 CFG=2
M  V30 24 C -6.4354 -2.3356 0.0 0
M  V30 25 C -7.7523 -1.5653 0.0 0 CFG=1
M  V30 26 C -9.0816 0.7702 0.0 0
M  V30 27 C -7.7275 1.4038 0.0 0
M  V30 28 C -9.1065 -2.3604 0.0 0
M  V30 29 C -10.4607 0.0 0.0 0
M  V30 30 C -10.4731 -1.5653 0.0 0 CFG=2
M  V30 31 C -9.8271 -3.6277 0.0 0
M  V30 32 C -8.3735 -3.6152 0.0 0
M  V30 33 O -11.7403 -2.2859 0.0 0
M  V30 34 C -12.9951 -1.5529 0.0 0
M  V30 35 O -12.9951 -0.0993 0.0 0
M  V30 36 C -14.2623 -2.2735 0.0 0
M  V30 END ATOM
M  V30 BEGIN BOND
M  V30 1 2 1 2
M  V30 2 1 2 3
M  V30 3 1 4 2 CFG=1
M  V30 4 1 4 5
M  V30 5 1 4 6
M  V30 6 1 4 7
M  V30 7 1 5 8 CFG=3
M  V30 8 1 5 9
M  V30 9 1 6 10
M  V30 10 1 7 11
M  V30 11 2 8 12
M  V30 12 1 8 13
M  V30 13 1 9 14
M  V30 14 1 9 15 CFG=1
M  V30 15 1 12 16
M  V30 16 1 13 17
M  V30 17 1 13 18 CFG=3
M  V30 18 1 14 19 CFG=3
M  V30 19 1 20 16 CFG=1
M  V30 20 1 17 21
M  V30 21 1 17 22 CFG=1
M  V30 22 1 20 23
M  V30 23 1 21 24
M  V30 24 1 23 25
M  V30 25 1 23 26
M  V30 26 1 23 27 CFG=1
M  V30 27 1 25 28
M  V30 28 1 26 29
M  V30 29 1 28 30
M  V30 30 1 28 31
M  V30 31 1 28 32
M  V30 32 1 30 33 CFG=1
M  V30 33 1 33 34
M  V30 34 2 34 35
M  V30 35 1 34 36
M  V30 36 1 10 13
M  V30 37 1 11 14
M  V30 38 1 17 20
M  V30 39 1 25 24 CFG=1
M  V30 40 1 29 30
M  V30 END BOND
M  V30 BEGIN COLLECTION
M  V30 MDLV30/STEABS ATOMS=(10 4 5 9 13 14 17 20 23 25 30)
M  V30 END COLLECTION
M  V30 END CTAB
M  END
>  <Structure No>
398

>  <Molecule Name>
ursolic acid acetate

>  <PubChem CID>
6475119

>  <SMILES>
C[C@@H]1CC[C@@]2(CC[C@@]3(C(=CC[C@H]4[C@]3(CC[C@@H]5[C@@]4(CC[C@@H](C5(C)C)OC(=O)C)C)C)[C@@H]2[C@H]1C)C)C(=O)O

>  <InChIKey>
PHFUCJXOLZAQNH-OTMOLZNZSA-N

>  <Molecular Formula>
C32H50O4

>  <Target Organism>
Aedes aegypti

>  <Reference DOI>
10.1002/ps.5769

>  <Activity Label>
1

>  <Repellency>
Active

>  <IUPAC>
(1S,2R,4aS,6aR,6aS,6bR,8aR,10S,12aR,14bS)-10-acetyloxy-1,2,6a,6b,9,9,12a-heptamethyl-2,3,4,5,6,6a,7,8,8a,10,11,12,13,14b-tetradecahydro-1H-picene-4a-carboxylic acid

>  <Common name>
ursolic acid acetate

$$$$
Compound 399
Actelion Java MolfileCreator 2.0

  0  0  0  0  0  0              0 V3000
M  V30 BEGIN CTAB
M  V30 COUNTS 7 7 0 0 0
M  V30 BEGIN ATOM
M  V30 1 N 0.0 0.0 0.0 0
M  V30 2 C -1.2991 0.744 0.0 0
M  V30 3 C 1.2991 0.744 0.0 0
M  V30 4 C 0.0 -1.4999 0.0 0
M  V30 5 C -1.2991 2.2439 0.0 0
M  V30 6 C 1.2991 2.2439 0.0 0
M  V30 7 N 0.0 2.9998 0.0 0
M  V30 END ATOM
M  V30 BEGIN BOND
M  V30 1 1 1 2
M  V30 2 1 1 3
M  V30 3 1 1 4
M  V30 4 1 2 5
M  V30 5 1 3 6
M  V30 6 1 5 7
M  V30 7 1 6 7
M  V30 END BOND
M  V30 END CTAB
M  END
>  <Structure No>
399

>  <Molecule Name>
1-methylpiperazine

>  <PubChem CID>
53167

>  <SMILES>
CN1CCNCC1

>  <InChIKey>
PVOAHINGSUIXLS-UHFFFAOYSA-N

>  <Molecular Formula>
C5H12N2

>  <Target Organism>
Aedes aegypti

>  <Reference DOI>
10.1002/ps.8281

>  <Activity Label>
1

>  <Repellency>
Active

>  <IUPAC>
1-methylpiperazine

>  <Common name>
1-methylpiperazine

$$$$
Compound 400
Actelion Java MolfileCreator 2.0

  0  0  0  0  0  0              0 V3000
M  V30 BEGIN CTAB
M  V30 COUNTS 6 6 0 0 0
M  V30 BEGIN ATOM
M  V30 1 N 0.0 0.0 0.0 0
M  V30 2 C 1.2132 0.8834 0.0 0
M  V30 3 C -1.2132 0.8834 0.0 0
M  V30 4 C 0.0 -1.4959 0.0 0
M  V30 5 C 0.7538 2.3086 0.0 0
M  V30 6 C -0.7538 2.3086 0.0 0
M  V30 END ATOM
M  V30 BEGIN BOND
M  V30 1 1 1 2
M  V30 2 1 1 3
M  V30 3 1 1 4
M  V30 4 1 2 5
M  V30 5 1 3 6
M  V30 6 1 5 6
M  V30 END BOND
M  V30 END CTAB
M  END
>  <Structure No>
400

>  <Molecule Name>
1-methylpyrrolidine

>  <PubChem CID>
8454

>  <SMILES>
CN1CCCC1

>  <InChIKey>
AVFZOVWCLRSYKC-UHFFFAOYSA-N

>  <Molecular Formula>
C5H11N

>  <Target Organism>
Aedes aegypti

>  <Reference DOI>
10.1002/ps.8281

>  <Activity Label>
1

>  <Repellency>
Active

>  <IUPAC>
1-methylpyrrolidine

>  <Common name>
1-methylpyrrolidine

$$$$
Compound 401
Actelion Java MolfileCreator 2.0

  0  0  0  0  0  0              0 V3000
M  V30 BEGIN CTAB
M  V30 COUNTS 7 6 0 0 0
M  V30 BEGIN ATOM
M  V30 1 N 0.0 0.0 0.0 0
M  V30 2 C 1.2986 0.7437 0.0 0
M  V30 3 C -1.2986 0.7437 0.0 0
M  V30 4 C 0.0 -1.4993 0.0 0
M  V30 5 C 2.5973 -0.0118 0.0 0
M  V30 6 C -2.5973 -0.0118 0.0 0
M  V30 7 C -1.2986 -2.2549 0.0 0
M  V30 END ATOM
M  V30 BEGIN BOND
M  V30 1 1 1 2
M  V30 2 1 1 3
M  V30 3 1 1 4
M  V30 4 1 2 5
M  V30 5 1 3 6
M  V30 6 1 4 7
M  V30 END BOND
M  V30 END CTAB
M  END
>  <Structure No>
401

>  <Molecule Name>
triethylamine

>  <PubChem CID>
8471

>  <SMILES>
CCN(CC)CC

>  <InChIKey>
ZMANZCXQSJIPKH-UHFFFAOYSA-N

>  <Molecular Formula>
C6H15N

>  <Target Organism>
Aedes aegypti

>  <Reference DOI>
10.1002/ps.8281

>  <Activity Label>
1

>  <Repellency>
Active

>  <IUPAC>
N,N-diethylethanamine

>  <Common name>
triethylamine

$$$$
Compound 402
Actelion Java MolfileCreator 2.0

  0  0  0  0  0  0              0 V3000
M  V30 BEGIN CTAB
M  V30 COUNTS 11 11 0 0 0
M  V30 BEGIN ATOM
M  V30 1 O 0.0 0.0 0.0 0
M  V30 2 C 1.2998 0.7444 0.0 0 CFG=1
M  V30 3 C 2.5996 -0.0118 0.0 0 CFG=1
M  V30 4 C 1.2998 2.2451 0.0 0
M  V30 5 C 3.8994 0.7326 0.0 0
M  V30 6 C 2.5996 -1.5125 0.0 0
M  V30 7 C 2.5996 2.9895 0.0 0 CFG=1
M  V30 8 C 3.8994 2.2333 0.0 0
M  V30 9 C 2.5996 4.4902 0.0 0
M  V30 10 C 3.8994 5.2347 0.0 0
M  V30 11 C 1.2998 5.2347 0.0 0
M  V30 END ATOM
M  V30 BEGIN BOND
M  V30 1 1 2 1 CFG=3
M  V30 2 1 2 3
M  V30 3 1 2 4
M  V30 4 1 3 5
M  V30 5 1 3 6 CFG=1
M  V30 6 1 4 7
M  V30 7 1 5 8
M  V30 8 1 7 9 CFG=3
M  V30 9 1 9 10
M  V30 10 1 9 11
M  V30 11 1 7 8
M  V30 END BOND
M  V30 BEGIN COLLECTION
M  V30 MDLV30/STEABS ATOMS=(3 2 3 7)
M  V30 END COLLECTION
M  V30 END CTAB
M  END
>  <Structure No>
402

>  <Molecule Name>
p-menthan-2-ol

>  <PubChem CID>
62350

>  <SMILES>
C[C@@H]1CC[C@H](C[C@H]1O)C(C)C

>  <InChIKey>
ULJXKUJMXIVDOY-OPRDCNLKSA-N

>  <Molecular Formula>
C10H20O

>  <Target Organism>
Aedes albopictus

>  <Reference DOI>
10.1016/j.jep.2018.11.031

>  <Activity Label>
1

>  <Repellency>
Active

>  <IUPAC>
(1R,2R,5R)-2-methyl-5-propan-2-ylcyclohexan-1-ol

>  <Common name>
p-menthan-2-ol

$$$$
Compound 403
Actelion Java MolfileCreator 2.0

  0  0  0  0  0  0              0 V3000
M  V30 BEGIN CTAB
M  V30 COUNTS 11 11 0 0 0
M  V30 BEGIN ATOM
M  V30 1 O 0.0 0.0 0.0 0
M  V30 2 C 0.0 1.5017 0.0 0
M  V30 3 C -1.3007 2.2467 0.0 0
M  V30 4 C 1.3007 2.2467 0.0 0
M  V30 5 C -1.3007 3.7485 0.0 0
M  V30 6 C 1.3007 3.7485 0.0 0
M  V30 7 C 0.0 4.4935 0.0 0
M  V30 8 C -2.6015 4.4935 0.0 0
M  V30 9 C 0.0 5.9952 0.0 0
M  V30 10 C 1.3007 6.7402 0.0 0
M  V30 11 C -1.3007 6.7402 0.0 0
M  V30 END ATOM
M  V30 BEGIN BOND
M  V30 1 1 1 2
M  V30 2 2 2 3
M  V30 3 1 2 4
M  V30 4 1 3 5
M  V30 5 2 4 6
M  V30 6 2 5 7
M  V30 7 1 5 8
M  V30 8 1 7 9
M  V30 9 1 9 10
M  V30 10 1 9 11
M  V30 11 1 6 7
M  V30 END BOND
M  V30 END CTAB
M  END
>  <Structure No>
403

>  <Molecule Name>
3-methyl-4-isopropylphenol

>  <PubChem CID>
18597

>  <SMILES>
CC1=C(C=CC(=C1)O)C(C)C

>  <InChIKey>
IJALWSVNUBBQRA-UHFFFAOYSA-N

>  <Molecular Formula>
C10H14O

>  <Target Organism>
Aedes albopictus

>  <Reference DOI>
10.1016/j.jep.2018.11.031

>  <Activity Label>
1

>  <Repellency>
Active

>  <IUPAC>
3-methyl-4-propan-2-ylphenol

>  <Common name>
3-methyl-4-isopropylphenol

$$$$
Compound 404
Actelion Java MolfileCreator 2.0

  0  0  0  0  0  0              0 V3000
M  V30 BEGIN CTAB
M  V30 COUNTS 11 11 0 0 0
M  V30 BEGIN ATOM
M  V30 1 O 0.0 0.0 0.0 0
M  V30 2 C 0.0 1.5017 0.0 0
M  V30 3 C -1.3007 2.2467 0.0 0
M  V30 4 C 1.3007 2.2467 0.0 0
M  V30 5 C -1.3007 3.7485 0.0 0
M  V30 6 C -2.6015 1.5017 0.0 0
M  V30 7 C 1.3007 3.7485 0.0 0
M  V30 8 C 0.0 4.4935 0.0 0
M  V30 9 C 0.0 5.9952 0.0 0
M  V30 10 C 1.3007 6.7402 0.0 0
M  V30 11 C -1.3007 6.7402 0.0 0
M  V30 END ATOM
M  V30 BEGIN BOND
M  V30 1 1 1 2
M  V30 2 2 2 3
M  V30 3 1 2 4
M  V30 4 1 3 5
M  V30 5 1 3 6
M  V30 6 2 4 7
M  V30 7 2 5 8
M  V30 8 1 8 9
M  V30 9 1 9 10
M  V30 10 1 9 11
M  V30 11 1 7 8
M  V30 END BOND
M  V30 END CTAB
M  END
>  <Structure No>
404

>  <Molecule Name>
2-methyl-4-isopropylphenol

>  <PubChem CID>
74446

>  <SMILES>
CC1=C(C=CC(=C1)C(C)C)O

>  <InChIKey>
WYXXLXHHWYNKJF-UHFFFAOYSA-N

>  <Molecular Formula>
C10H14O

>  <Target Organism>
Aedes albopictus

>  <Reference DOI>
10.1016/j.jep.2018.11.031

>  <Activity Label>
1

>  <Repellency>
Active

>  <IUPAC>
2-methyl-4-propan-2-ylphenol

>  <Common name>
2-methyl-4-isopropylphenol

$$$$
Compound 405
Actelion Java MolfileCreator 2.0

  0  0  0  0  0  0              0 V3000
M  V30 BEGIN CTAB
M  V30 COUNTS 11 11 0 0 0
M  V30 BEGIN ATOM
M  V30 1 O 0.0 0.0 0.0 0
M  V30 2 C 1.2991 -0.7558 0.0 0
M  V30 3 C 2.5982 -0.0118 0.0 0
M  V30 4 C 1.2991 -2.2557 0.0 0
M  V30 5 C 3.8973 -0.7676 0.0 0
M  V30 6 C 2.5982 1.488 0.0 0
M  V30 7 C 2.5982 -3.0115 0.0 0
M  V30 8 C 3.8973 -2.2675 0.0 0
M  V30 9 C 3.8973 2.2321 0.0 0
M  V30 10 C 1.2991 2.2321 0.0 0
M  V30 11 C 5.1964 -3.0233 0.0 0
M  V30 END ATOM
M  V30 BEGIN BOND
M  V30 1 1 1 2
M  V30 2 2 2 3
M  V30 3 1 2 4
M  V30 4 1 3 5
M  V30 5 1 3 6
M  V30 6 2 4 7
M  V30 7 2 5 8
M  V30 8 1 6 9
M  V30 9 1 6 10
M  V30 10 1 8 11
M  V30 11 1 7 8
M  V30 END BOND
M  V30 END CTAB
M  END
>  <Structure No>
405

>  <Molecule Name>
4-methyl-2-isopropylphenol

>  <PubChem CID>
78153

>  <SMILES>
CC1=CC(=C(C=C1)O)C(C)C

>  <InChIKey>
DSTPUJAJSXTJHM-UHFFFAOYSA-N

>  <Molecular Formula>
C10H14O

>  <Target Organism>
Aedes albopictus

>  <Reference DOI>
10.1016/j.jep.2018.11.031

>  <Activity Label>
1

>  <Repellency>
Active

>  <IUPAC>
4-methyl-2-propan-2-ylphenol

>  <Common name>
4-methyl-2-isopropylphenol

$$$$
Compound 406
Actelion Java MolfileCreator 2.0

  0  0  0  0  0  0              0 V3000
M  V30 BEGIN CTAB
M  V30 COUNTS 11 11 0 0 0
M  V30 BEGIN ATOM
M  V30 1 O 0.0 0.0 0.0 0
M  V30 2 C -1.2972 0.7547 0.0 0
M  V30 3 C -1.2972 2.2525 0.0 0
M  V30 4 C -2.5945 0.0 0.0 0
M  V30 5 C -2.5945 3.0072 0.0 0
M  V30 6 C -3.8917 0.7547 0.0 0
M  V30 7 C -3.8917 2.2525 0.0 0
M  V30 8 C -2.5945 4.505 0.0 0
M  V30 9 C -5.189 3.0072 0.0 0
M  V30 10 C -1.2972 5.2597 0.0 0
M  V30 11 C -3.8917 5.2597 0.0 0
M  V30 END ATOM
M  V30 BEGIN BOND
M  V30 1 1 1 2
M  V30 2 2 2 3
M  V30 3 1 2 4
M  V30 4 1 3 5
M  V30 5 2 4 6
M  V30 6 2 5 7
M  V30 7 1 5 8
M  V30 8 1 7 9
M  V30 9 1 8 10
M  V30 10 1 8 11
M  V30 11 1 6 7
M  V30 END BOND
M  V30 END CTAB
M  END
>  <Structure No>
406

>  <Molecule Name>
4-methyl-3-isopropylphenol

>  <PubChem CID>
138204

>  <SMILES>
CC1=C(C=C(C=C1)O)C(C)C

>  <InChIKey>
FBNAWLJSQORPAX-UHFFFAOYSA-N

>  <Molecular Formula>
C10H14O

>  <Target Organism>
Aedes albopictus

>  <Reference DOI>
10.1016/j.jep.2018.11.031

>  <Activity Label>
1

>  <Repellency>
Active

>  <IUPAC>
4-methyl-3-propan-2-ylphenol

>  <Common name>
4-methyl-3-isopropylphenol

$$$$
Compound 407
Actelion Java MolfileCreator 2.0

  0  0  0  0  0  0              0 V3000
M  V30 BEGIN CTAB
M  V30 COUNTS 21 20 0 0 0
M  V30 BEGIN ATOM
M  V30 1 O 0.0 0.0 0.0 0
M  V30 2 C 1.297 -0.7546 0.0 0
M  V30 3 C 2.5941 0.0 0.0 0
M  V30 4 C 3.8911 -0.7546 0.0 0
M  V30 5 C 5.1882 0.0 0.0 0
M  V30 6 C 3.8911 -2.2521 0.0 0
M  V30 7 C 6.4852 -0.7546 0.0 0
M  V30 8 C 7.7823 0.0 0.0 0
M  V30 9 C 9.0794 -0.7546 0.0 0
M  V30 10 C 10.3764 0.0 0.0 0
M  V30 11 C 9.0794 -2.2521 0.0 0
M  V30 12 C 11.6735 -0.7546 0.0 0
M  V30 13 C 12.9705 0.0 0.0 0
M  V30 14 C 14.2676 -0.7546 0.0 0
M  V30 15 C 15.5647 0.0 0.0 0
M  V30 16 C 14.2676 -2.2521 0.0 0
M  V30 17 C 16.8617 -0.7546 0.0 0
M  V30 18 C 18.1588 0.0 0.0 0
M  V30 19 C 19.4558 -0.7546 0.0 0
M  V30 20 C 20.7529 0.0 0.0 0
M  V30 21 C 19.4558 -2.2521 0.0 0
M  V30 END ATOM
M  V30 BEGIN BOND
M  V30 1 1 1 2
M  V30 2 1 2 3
M  V30 3 2 3 4
M  V30 4 1 4 5
M  V30 5 1 4 6
M  V30 6 1 5 7
M  V30 7 1 7 8
M  V30 8 1 8 9
M  V30 9 1 9 10
M  V30 10 1 9 11
M  V30 11 1 10 12
M  V30 12 1 12 13
M  V30 13 1 13 14
M  V30 14 1 14 15
M  V30 15 1 14 16
M  V30 16 1 15 17
M  V30 17 1 17 18
M  V30 18 1 18 19
M  V30 19 1 19 20
M  V30 20 1 19 21
M  V30 END BOND
M  V30 END CTAB
M  END
>  <Structure No>
407

>  <Molecule Name>
phytol

>  <PubChem CID>
5366244

>  <SMILES>
CC(C)CCCC(C)CCCC(C)CCC/C(=C/CO)/C

>  <InChIKey>
BOTWFXYSPFMFNR-HMMYKYKNSA-N

>  <Molecular Formula>
C20H40O

>  <Target Organism>
Aedes aegypti

>  <Reference DOI>
10.1021/acs.jafc.6b01668

>  <Activity Label>
1

>  <Repellency>
Active

>  <IUPAC>
(E)-3,7,11,15-tetramethylhexadec-2-en-1-ol

>  <Common name>
phytol

$$$$
Compound 408
Actelion Java MolfileCreator 2.0

  0  0  0  0  0  0              0 V3000
M  V30 BEGIN CTAB
M  V30 COUNTS 11 11 0 0 0
M  V30 BEGIN ATOM
M  V30 1 O 0.0 0.0 0.0 0
M  V30 2 C 0.0 -1.499 0.0 0
M  V30 3 C 1.2984 0.7436 0.0 0
M  V30 4 C -1.2984 -2.2545 0.0 0
M  V30 5 C 1.2984 -2.2545 0.0 0
M  V30 6 O -2.5968 -1.5108 0.0 0
M  V30 7 C -1.2984 -3.7536 0.0 0
M  V30 8 C 1.2984 -3.7536 0.0 0
M  V30 9 C 0.0 -4.509 0.0 0
M  V30 10 C 2.5968 -4.509 0.0 0
M  V30 11 C 2.5968 -6.0081 0.0 0
M  V30 END ATOM
M  V30 BEGIN BOND
M  V30 1 1 1 2
M  V30 2 1 1 3
M  V30 3 2 2 4
M  V30 4 1 2 5
M  V30 5 1 4 6
M  V30 6 1 4 7
M  V30 7 2 5 8
M  V30 8 2 7 9
M  V30 9 1 8 10
M  V30 10 2 10 11
M  V30 11 1 8 9
M  V30 END BOND
M  V30 END CTAB
M  END
>  <Structure No>
408

>  <Molecule Name>
2-methoxy-4-vinylphenol

>  <PubChem CID>
332

>  <SMILES>
COC1=C(C=CC(=C1)C=C)O

>  <InChIKey>
YOMSJEATGXXYPX-UHFFFAOYSA-N

>  <Molecular Formula>
C9H10O2

>  <Target Organism>
Aedes aegypti

>  <Reference DOI>
10.1021/acs.jafc.6b01668

>  <Activity Label>
1

>  <Repellency>
Active

>  <IUPAC>
4-ethenyl-2-methoxyphenol

>  <Common name>
2-methoxy-4-vinylphenol

$$$$
Compound 409
Actelion Java MolfileCreator 2.0

  0  0  0  0  0  0              0 V3000
M  V30 BEGIN CTAB
M  V30 COUNTS 16 17 0 0 0
M  V30 BEGIN ATOM
M  V30 1 O 0.0 0.0 0.0 0
M  V30 2 C 0.7461 1.2824 0.0 0 CFG=2
M  V30 3 C 2.0285 2.0285 0.0 0 CFG=2
M  V30 4 C -0.5362 2.0285 0.0 0
M  V30 5 C 1.4922 0.0 0.0 0
M  V30 6 C 2.0285 3.5091 0.0 0 CFG=2
M  V30 7 C 3.3575 1.2357 0.0 0
M  V30 8 C -0.5362 3.5091 0.0 0
M  V30 9 C 3.3575 4.3019 0.0 0
M  V30 10 C 0.7461 4.2436 0.0 0
M  V30 11 C 2.0285 4.9897 0.0 0
M  V30 12 C 4.6982 1.9935 0.0 0 CFG=1
M  V30 13 C 4.6982 3.5441 0.0 0
M  V30 14 C 5.9806 1.2474 0.0 0
M  V30 15 C 5.9806 -0.2331 0.0 0
M  V30 16 C 7.2631 1.9819 0.0 0
M  V30 END ATOM
M  V30 BEGIN BOND
M  V30 1 1 2 1 CFG=1
M  V30 2 1 2 3
M  V30 3 1 2 4
M  V30 4 1 2 5
M  V30 5 1 3 6
M  V30 6 1 3 7 CFG=3
M  V30 7 1 4 8
M  V30 8 1 6 9
M  V30 9 1 6 10
M  V30 10 1 6 11 CFG=3
M  V30 11 1 7 12
M  V30 12 1 9 13
M  V30 13 1 12 14 CFG=1
M  V30 14 2 14 15
M  V30 15 1 14 16
M  V30 16 1 8 10
M  V30 17 1 12 13
M  V30 END BOND
M  V30 BEGIN COLLECTION
M  V30 MDLV30/STEABS ATOMS=(4 2 3 6 12)
M  V30 END COLLECTION
M  V30 END CTAB
M  END
>  <Structure No>
409

>  <Molecule Name>
intermedeol

>  <PubChem CID>
15560333

>  <SMILES>
CC(=C)[C@@H]1CC[C@@]2(CCC[C@]([C@H]2C1)(C)O)C

>  <InChIKey>
DPQYOKVMVCQHMY-QPSCCSFWSA-N

>  <Molecular Formula>
C15H26O

>  <Target Organism>
Aedes aegypti; Anopheles stephensi

>  <Reference DOI>
10.1021/jf0509308

>  <Activity Label>
1

>  <Repellency>
Active

>  <IUPAC>
(1S,4aS,7R,8aS)-1,4a-dimethyl-7-prop-1-en-2-yl-2,3,4,5,6,7,8,8a-octahydronaphthalen-1-ol

>  <Common name>
intermedeol

$$$$
Compound 410
Actelion Java MolfileCreator 2.0

  0  0  0  0  0  0              0 V3000
M  V30 BEGIN CTAB
M  V30 COUNTS 16 18 0 0 0
M  V30 BEGIN ATOM
M  V30 1 O 0.0 0.0 0.0 0
M  V30 2 C 0.9938 1.124 0.0 0 CFG=2
M  V30 3 C 2.2835 1.8812 0.0 0 CFG=2
M  V30 4 C -0.1301 2.106 0.0 0
M  V30 5 C 1.7629 -0.1656 0.0 0
M  V30 6 C 1.9522 3.3483 0.0 0 CFG=1
M  V30 7 C 3.6323 1.2305 0.0 0 CFG=2
M  V30 8 C 0.4614 3.4785 0.0 0
M  V30 9 C 2.8869 4.5197 0.0 0
M  V30 10 C 4.8746 0.3786 0.0 0
M  V30 11 C 4.9811 1.8812 0.0 0 CFG=2
M  V30 12 C 2.2362 5.8685 0.0 0
M  V30 13 C 4.3895 4.5197 0.0 0
M  V30 14 C 6.3773 0.2721 0.0 0
M  V30 15 C 4.0228 -0.8637 0.0 0
M  V30 16 C 5.3124 3.3483 0.0 0
M  V30 END ATOM
M  V30 BEGIN BOND
M  V30 1 1 2 1 CFG=1
M  V30 2 1 2 3
M  V30 3 1 2 4
M  V30 4 1 2 5
M  V30 5 1 3 6
M  V30 6 1 3 7 CFG=3
M  V30 7 1 4 8
M  V30 8 1 6 9 CFG=1
M  V30 9 1 7 10 CFG=1
M  V30 10 1 7 11
M  V30 11 2 9 12
M  V30 12 1 9 13
M  V30 13 1 10 14
M  V30 14 1 10 15
M  V30 15 1 11 16 CFG=1
M  V30 16 1 6 8
M  V30 17 1 10 11
M  V30 18 1 13 16
M  V30 END BOND
M  V30 BEGIN COLLECTION
M  V30 MDLV30/STEABS ATOMS=(5 2 3 6 7 11)
M  V30 END COLLECTION
M  V30 END CTAB
M  END
>  <Structure No>
410

>  <Molecule Name>
spathulenol

>  <PubChem CID>
92231

>  <SMILES>
C[C@@]1(CC[C@@H]2[C@@H]1[C@H]3[C@H](C3(C)C)CCC2=C)O

>  <InChIKey>
FRMCCTDTYSRUBE-BGPZULBFSA-N

>  <Molecular Formula>
C15H24O

>  <Target Organism>
Aedes aegypti; Anopheles stephensi

>  <Reference DOI>
10.1021/jf0509308

>  <Activity Label>
1

>  <Repellency>
Active

>  <IUPAC>
(1aR,4aR,7S,7aR,7bR)-1,1,7-trimethyl-4-methylidene-1a,2,3,4a,5,6,7a,7b-octahydrocyclopropa[h]azulen-7-ol

>  <Common name>
spathulenol

$$$$
Compound 411
Actelion Java MolfileCreator 2.0

  0  0  0  0  0  0              0 V3000
M  V30 BEGIN CTAB
M  V30 COUNTS 15 16 0 0 0
M  V30 BEGIN ATOM
M  V30 1 O 0.0 0.0 0.0 0
M  V30 2 C 1.2995 0.7443 0.0 0
M  V30 3 N 1.2995 2.2447 0.0 0
M  V30 4 C 2.5991 -0.0118 0.0 0 CFG=2
M  V30 5 C 0.0 2.989 0.0 0 CFG=2
M  V30 6 C 2.5991 2.989 0.0 0
M  V30 7 C 3.8987 0.7325 0.0 0
M  V30 8 C 2.5991 -1.5122 0.0 0
M  V30 9 C 0.0 4.4895 0.0 0
M  V30 10 C -1.2995 2.2329 0.0 0
M  V30 11 C 2.5991 4.4895 0.0 0
M  V30 12 C 5.1983 -0.0236 0.0 0
M  V30 13 C 3.8987 -2.2683 0.0 0
M  V30 14 C 1.2995 5.2338 0.0 0
M  V30 15 C 5.1983 -1.524 0.0 0
M  V30 END ATOM
M  V30 BEGIN BOND
M  V30 1 2 1 2
M  V30 2 1 2 3
M  V30 3 1 4 2 CFG=3
M  V30 4 1 3 5
M  V30 5 1 3 6
M  V30 6 1 4 7
M  V30 7 1 4 8
M  V30 8 1 5 9
M  V30 9 1 5 10 CFG=1
M  V30 10 1 6 11
M  V30 11 1 7 12
M  V30 12 1 8 13
M  V30 13 1 9 14
M  V30 14 2 12 15
M  V30 15 1 11 14
M  V30 16 1 13 15
M  V30 END BOND
M  V30 BEGIN COLLECTION
M  V30 MDLV30/STEABS ATOMS=(2 4 5)
M  V30 END COLLECTION
M  V30 END CTAB
M  END
>  <Structure No>
411

>  <Molecule Name>
SS-220

>  <PubChem CID>
40579125

>  <SMILES>
C[C@H]1CCCCN1C(=O)[C@H]2CCC=CC2

>  <InChIKey>
KRHYGGFLEBNTHQ-NWDGAFQWSA-N

>  <Molecular Formula>
C13H21NO

>  <Target Organism>
Aedes aegypti; Anopheles stephensi

>  <Reference DOI>
10.1021/jf0509308

>  <Activity Label>
1

>  <Repellency>
Active

>  <IUPAC>
[(1S)-cyclohex-3-en-1-yl]-[(2S)-2-methylpiperidin-1-yl]methanone

>  <Common name>
SS-220

$$$$
